5
[SIH](CL)(CL)CL
Si	-0.005173979792743921	0.0004698452539741993	0.15505433082580566	-0.13476407527923584
Cl	-0.22457897663116455	1.875862956047058	-0.6119410991668701	-0.03232109546661377
Cl	1.767464518547058	-0.7285935282707214	-0.5375776886940002	-0.031253933906555176
Cl	-1.4830129146575928	-1.152705430984497	-0.6447570323944092	-0.03180134296417236
H	-0.054698601365089417	0.004966158885508776	1.639221429824829	-0.009425044059753418
