15
C1=CC=C(C=C1)[SI](CL)(CL)CL
C	-1.9995559453964233	0.246682271361351	0.9779360294342041	0.022123873233795166
C	-0.9766198396682739	1.150644302368164	1.24298095703125	0.02482140064239502
C	0.2739667594432831	0.9952847361564636	0.636518657207489	0.03961843252182007
C	0.5333986282348633	-0.07349411398172379	-0.247694194316864	0.013544082641601562
C	-0.5260738730430603	-0.9698618054389954	-0.5035390853881836	0.03942388296127319
C	-1.7756073474884033	-0.811913013458252	0.10442584753036499	0.025881290435791016
Si	2.185638904571533	-0.2740646302700043	-1.061322569847107	-0.21357384324073792
Cl	3.648667812347412	0.46221160888671875	0.13797681033611298	-0.04887416958808899
Cl	2.14526104927063	0.7570227384567261	-2.8079166412353516	-0.051886558532714844
Cl	2.549060583114624	-2.236934185028076	-1.430004358291626	-0.04969823360443115
H	-2.9712274074554443	0.36877375841140747	1.449361801147461	0.016291141510009766
H	-1.1504813432693481	1.9817500114440918	1.9225424528121948	0.016395270824432373
H	1.0411862134933472	1.7337875366210938	0.8717573881149292	0.018271565437316895
H	-0.4023835062980652	-1.812025547027588	-1.185305118560791	0.017681241035461426
H	-2.575230360031128	-1.5178636312484741	-0.10771799832582474	0.01630985736846924
