25
C1=CC=C(C=C1)[SI](C2=CC=CC=C2)(CL)CL
C	3.9374656677246094	0.5164760947227478	0.48117682337760925	0.03423994779586792
C	2.7739388942718506	1.2712994813919067	0.3739747405052185	0.03892672061920166
C	1.537806749343872	0.639350950717926	0.20484451949596405	0.048022687435150146
C	1.4378008842468262	-0.7651739716529846	0.13902799785137177	0.011105954647064209
C	2.633852958679199	-1.5055674314498901	0.25058698654174805	0.04277658462524414
C	3.8681581020355225	-0.8712183833122253	0.41958776116371155	0.03217273950576782
Si	-0.1858328878879547	-1.6236599683761597	-0.08421221375465393	-0.17153823375701904
C	-1.5917174816131592	-0.4265081584453583	-0.20288197696208954	0.007312357425689697
C	-2.2811999320983887	0.013660081662237644	0.9464743137359619	0.033532679080963135
C	-3.3319191932678223	0.9321378469467163	0.857349157333374	0.02604454755783081
C	-3.717132091522217	1.4360222816467285	-0.3802604079246521	0.04091167449951172
C	-3.052129030227661	1.0240530967712402	-1.530051350593567	0.04534858465194702
C	-2.0010952949523926	0.10568033158779144	-1.443583369255066	0.046680450439453125
Cl	-0.08282744139432907	-2.74155330657959	-1.7791969776153564	-0.06753760576248169
Cl	-0.46688932180404663	-2.867642879486084	1.499066948890686	-0.0627780556678772
H	4.897148609161377	1.0091300010681152	0.612554669380188	0.019777417182922363
H	2.8255317211151123	2.3563947677612305	0.42181065678596497	0.020911693572998047
H	0.6551584005355835	1.2744109630584717	0.12591202557086945	0.021334826946258545
H	2.624342918395996	-2.595536231994629	0.20746776461601257	0.020170092582702637
H	4.775561332702637	-1.4644094705581665	0.5029928088188171	0.018714070320129395
H	-2.0128719806671143	-0.35012832283973694	1.9389246702194214	0.017569422721862793
H	-3.8497159481048584	1.2523255348205566	1.7583948373794556	0.018775582313537598
H	-4.535059928894043	2.14833927154541	-0.44869062304496765	0.02698516845703125
H	-3.3507275581359863	1.4162594079971313	-2.499345064163208	0.02674102783203125
H	-1.5076484680175781	-0.18414214253425598	-2.371924638748169	0.02207571268081665
