80
C[SI]1(O[SI](O[SI](O[SI](O[SI](O[SI](O[SI](O[SI](O1)(C)C)(C)C)(C)C)(C)C)(C)C)(C)C)(C)C)C
C	-4.033231258392334	3.9758615493774414	0.6399319171905518	0.010995864868164062
Si	-3.2535765171051025	2.7334506511688232	-0.5340558886528015	-0.12755775451660156
O	-1.5951223373413086	2.872380256652832	-0.5347666144371033	-0.06987762451171875
Si	-0.2791198492050171	2.8127458095550537	0.48964232206344604	-0.1137380599975586
O	1.072554588317871	3.0216269493103027	-0.4605717360973358	-0.0710296630859375
Si	2.7122299671173096	3.2774178981781006	-0.3739399015903473	-0.12081503868103027
O	3.4517323970794678	1.9343599081039429	0.2734340727329254	-0.06904888153076172
Si	3.906635284423828	0.3783000409603119	-0.1024160385131836	-0.1077268123626709
O	2.538602113723755	-0.5596365928649902	-0.20949000120162964	-0.06913566589355469
Si	1.9603890180587769	-1.9608174562454224	-0.8936894536018372	-0.11631011962890625
O	0.6640983819961548	-2.4729678630828857	0.026752764359116554	-0.06559944152832031
Si	0.36525759100914	-3.1289455890655518	1.5339003801345825	-0.10167431831359863
O	-1.2316687107086182	-2.875856637954712	1.9258315563201904	-0.0651693344116211
Si	-2.7508339881896973	-2.8439579010009766	1.2486401796340942	-0.1217336654663086
O	-3.063518762588501	-1.2888277769088745	0.752973198890686	-0.0711202621459961
Si	-3.532493829727173	-0.39614540338516235	-0.568859338760376	-0.12372207641601562
O	-3.661348581314087	1.1881119012832642	-0.07033240050077438	-0.07208061218261719
C	-5.1985602378845215	-0.9887392520904541	-1.2088435888290405	-0.046103477478027344
C	-2.292860746383667	-0.5754498243331909	-1.9647866487503052	-0.048720359802246094
C	-4.022623062133789	-3.3510797023773193	2.5420963764190674	-0.058191776275634766
C	-2.883096933364868	-4.076572895050049	-0.16341109573841095	-0.06236553192138672
C	0.7259807586669922	-4.977258682250977	1.5026967525482178	-0.0005712509155273438
C	1.47483491897583	-2.362377643585205	2.8427770137786865	-0.014026641845703125
C	1.4304146766662598	-1.6429569721221924	-2.6651978492736816	-0.04490184783935547
C	3.289271354675293	-3.2926828861236572	-0.9362263679504395	-0.026197433471679688
C	5.026210308074951	-0.29095807671546936	1.2556848526000977	-0.03328132629394531
C	4.890906810760498	0.3340165913105011	-1.7018495798110962	-0.03862571716308594
C	3.379040002822876	3.652430772781372	-2.0945334434509277	-0.011728286743164062
C	3.0978286266326904	4.780333042144775	0.6939284205436707	-0.026903152465820312
C	-0.4012770354747772	4.181935787200928	1.774775505065918	-0.015534400939941406
C	-0.20830310881137848	1.1823692321777344	1.4086626768112183	-0.03802013397216797
C	-3.921907424926758	3.1017682552337646	-2.254060745239258	0.026567459106445312
H	-3.7366864681243896	4.995650291442871	0.3784538507461548	0.013070106506347656
H	-5.124959945678711	3.9131085872650146	0.591644823551178	0.011596918106079102
H	-3.726754665374756	3.7802371978759766	1.6710535287857056	0.008855819702148438
H	-5.132596969604492	-2.0192809104919434	-1.5689202547073364	-0.006676673889160156
H	-5.536159038543701	-0.35711222887039185	-2.035857677459717	-0.0027551651000976562
H	-5.952203750610352	-0.9475637078285217	-0.41656050086021423	-0.004258394241333008
H	-2.1603918075561523	-1.6252275705337524	-2.2390153408050537	-0.007533073425292969
H	-2.6262638568878174	-0.03251740336418152	-2.85361647605896	-0.003954887390136719
H	-1.3215640783309937	-0.17554666101932526	-1.6631877422332764	-0.0038881301879882812
H	-5.03294038772583	-3.3128321170806885	2.123739004135132	-0.008312225341796875
H	-3.9794399738311768	-2.6780450344085693	3.4038257598876953	-0.006724357604980469
H	-3.8323769569396973	-4.370841979980469	2.8899567127227783	-0.007452964782714844
H	-2.6832454204559326	-5.091802597045898	0.19436992704868317	-0.008329391479492188
H	-2.1629769802093506	-3.8473875522613525	-0.9535547494888306	-0.008691072463989258
H	-3.8869569301605225	-4.063171863555908	-0.5977375507354736	-0.009669303894042969
H	0.5104061365127563	-5.423277378082275	2.4782795906066895	0.008479118347167969
H	1.7769347429275513	-5.162935256958008	1.26289963722229	0.0070056915283203125
H	0.10902751982212067	-5.477697372436523	0.7507878541946411	0.006012916564941406
H	1.327136516571045	-1.278761386871338	2.891463041305542	0.0025644302368164062
H	2.5293407440185547	-2.555856227874756	2.622236728668213	0.004242897033691406
H	1.250779390335083	-2.7808520793914795	3.829085111618042	0.004076957702636719
H	0.7413315176963806	-0.7958359122276306	-2.715977668762207	-0.003070831298828125
H	0.929562509059906	-2.521131992340088	-3.0834906101226807	-0.004389762878417969
H	2.297502279281616	-1.4126031398773193	-3.291522741317749	-0.0048923492431640625
H	2.8782958984375	-4.229837417602539	-1.3228257894515991	0.0015277862548828125
H	4.118399620056152	-2.992750406265259	-1.5828075408935547	0.0002117156982421875
H	3.6857895851135254	-3.4788529872894287	0.06640613079071045	0.0010619163513183594
H	5.91530179977417	0.3369300961494446	1.3640868663787842	-0.00205230712890625
H	5.349818229675293	-1.3097203969955444	1.0207310914993286	-0.0024461746215820312
H	4.497253894805908	-0.30957266688346863	2.2135298252105713	-0.0016279220581054688
H	4.268198013305664	0.6236999034881592	-2.5522689819335938	-0.0023832321166992188
H	5.740538120269775	1.0202428102493286	-1.6490223407745361	-0.0034074783325195312
H	5.2767109870910645	-0.6719080805778503	-1.8922308683395386	-0.0043468475341796875
H	2.9388372898101807	4.576242923736572	-2.480409622192383	0.00734710693359375
H	3.1337852478027344	2.8445394039154053	-2.789172649383545	0.0036039352416992188
H	4.465762138366699	3.773423910140991	-2.0681920051574707	0.0033168792724609375
H	2.57116436958313	5.662595748901367	0.31900614500045776	0.0029439926147460938
H	4.171615123748779	4.989322185516357	0.6854469180107117	0.00020313262939453125
H	2.793306350708008	4.608191013336182	1.729646921157837	-0.0015087127685546875
H	0.444612056016922	4.139983654022217	2.46718168258667	0.0006361007690429688
H	-0.40903618931770325	5.164335250854492	1.2932333946228027	0.0055637359619140625
H	-1.318408489227295	4.081382751464844	2.3616864681243896	0.003954887390136719
H	-0.19728104770183563	0.3504984974861145	0.7020618319511414	-0.0022754669189453125
H	-1.077909231185913	1.0644246339797974	2.0619583129882812	-0.0026464462280273438
H	0.6923757791519165	1.121833086013794	2.0262320041656494	-0.0037641525268554688
H	-3.5012283325195312	2.4111015796661377	-2.9892992973327637	0.01300811767578125
H	-3.660234212875366	4.120330333709717	-2.554136037826538	0.01789999008178711
H	-5.010616779327393	3.0029706954956055	-2.2738935947418213	0.015629053115844727
