11
C[SIH2]C
C	-1.5004611015319824	-0.3215048611164093	0.31320813298225403	-0.0344429612159729
Si	-0.058262575417757034	0.5617374181747437	-0.43792182207107544	-0.09501928091049194
C	1.5530149936676025	-0.1851985901594162	0.08180741965770721	-0.02584940195083618
H	-1.4605376720428467	-0.2838223874568939	1.4061121940612793	-0.0021070241928100586
H	-1.5172957181930542	-1.3742231130599976	0.01495388988405466	-0.002060830593109131
H	-2.4457240104675293	0.13038161396980286	-0.0024155783466994762	-0.00047785043716430664
H	-0.16828656196594238	0.5139228701591492	-1.9179277420043945	-0.0182763934135437
H	-0.09144696593284607	1.9903093576431274	-0.03432459384202957	-0.017715513706207275
H	1.6747431755065918	-0.14386074244976044	1.1685117483139038	0.0005263686180114746
H	2.3962604999542236	0.3465229272842407	-0.3693591058254242	0.0007062554359436035
H	1.6179958581924438	-1.234264612197876	-0.22264456748962402	0.0007305741310119629
