87
C[SI](C)(C)O[SI](C)(C)O[SI](C)(C)O[SI](C)(C)O[SI](C)(C)O[SI](C)(C)O[SI](C)(C)O[SI](C)(C)C
C	-8.56382942199707	1.3142272233963013	1.8976190090179443	-0.06765317916870117
Si	-7.8236188888549805	1.1239798069000244	0.178980752825737	-0.1893477439880371
C	-8.99162483215332	1.9480336904525757	-1.0483033657073975	-0.03378725051879883
C	-6.186281204223633	2.04659104347229	0.13486936688423157	-0.025998592376708984
O	-7.628847122192383	-0.4868762791156769	-0.22285428643226624	-0.08740949630737305
Si	-6.9599223136901855	-1.898048996925354	0.36596396565437317	-0.14366579055786133
C	-7.264825820922852	-3.3036155700683594	-0.8433793783187866	-0.08862447738647461
C	-7.7639055252075195	-2.379830837249756	1.9948899745941162	-0.08643841743469238
O	-5.332709789276123	-1.6461035013198853	0.5918889045715332	-0.07767724990844727
Si	-3.88993763923645	-1.5873905420303345	-0.23805472254753113	-0.13083982467651367
C	-4.123363971710205	-0.8750706315040588	-1.9614523649215698	-0.04471254348754883
C	-3.1866953372955322	-3.319748640060425	-0.4317101538181305	-0.061788082122802734
O	-2.8552820682525635	-0.6472334861755371	0.6660918593406677	-0.0753321647644043
Si	-1.5022995471954346	0.3088160753250122	0.5026767253875732	-0.12013959884643555
C	-0.5089178085327148	0.2829255759716034	2.0955655574798584	-0.04129838943481445
C	-2.0203070640563965	2.0840697288513184	0.1722937524318695	-0.011875152587890625
O	-0.6106988787651062	-0.2811156213283539	-0.7762988805770874	-0.0767359733581543
Si	0.9283108115196228	-0.18357856571674347	-1.4119255542755127	-0.12780427932739258
C	1.3753844499588013	1.6012459993362427	-1.7850291728973389	-0.019283771514892578
C	1.0034939050674438	-1.1444677114486694	-3.0233705043792725	-0.04777193069458008
O	1.967707872390747	-0.8440055251121521	-0.2917531728744507	-0.07344937324523926
Si	3.5950472354888916	-0.9637351036071777	0.043591804802417755	-0.11716890335083008
C	3.8424909114837646	-2.003256320953369	1.587519645690918	-0.016170024871826172
C	4.500136852264404	-1.805282711982727	-1.3706437349319458	-0.040898799896240234
O	4.167543411254883	0.5837713479995728	0.2736647427082062	-0.0741114616394043
Si	5.551502704620361	1.3789350986480713	0.7511093020439148	-0.1210017204284668
C	5.801211833953857	1.1989634037017822	2.6019287109375	-0.05144071578979492
C	5.394485950469971	3.2092018127441406	0.3671471178531647	-0.04212045669555664
O	6.826005935668945	0.7125753164291382	-0.09131385385990143	-0.07769060134887695
Si	8.494186401367188	0.66045081615448	-0.12037070095539093	-0.15299081802368164
C	9.228862762451172	2.387812614440918	-0.05756237730383873	-0.06875753402709961
C	9.079238891601562	-0.1764177829027176	-1.6987707614898682	-0.07554483413696289
C	9.149102210998535	-0.32021093368530273	1.343751072883606	-0.06916093826293945
H	-8.75761890411377	2.367913246154785	2.1184592247009277	-0.006126880645751953
H	-7.87984037399292	0.9277072548866272	2.6591076850891113	-0.00792074203491211
H	-9.50861644744873	0.7683249711990356	1.972657561302185	-0.00859212875366211
H	-9.963828086853027	1.4469033479690552	-1.0470348596572876	-0.0006127357482910156
H	-9.144643783569336	2.9996135234832764	-0.7868620157241821	0.0035386085510253906
H	-8.57959270477295	1.8995552062988281	-2.060410261154175	0.002407550811767578
H	-5.748894214630127	2.00752854347229	-0.8669660687446594	0.005161762237548828
H	-5.474642276763916	1.6093573570251465	0.8414729237556458	0.0017151832580566406
H	-6.3306355476379395	3.097482919692993	0.40281036496162415	0.005052089691162109
H	-6.843832492828369	-3.071218490600586	-1.8251686096191406	-0.013486385345458984
H	-6.806999206542969	-4.228433132171631	-0.4816855490207672	-0.014557361602783203
H	-8.338052749633789	-3.477834939956665	-0.9654262065887451	-0.014519214630126953
H	-8.84964656829834	-2.4531188011169434	1.88198721408844	-0.013811588287353516
H	-7.387425422668457	-3.3483786582946777	2.3377180099487305	-0.013863086700439453
H	-7.548587322235107	-1.6385356187820435	2.7694454193115234	-0.012916088104248047
H	-4.535868167877197	0.13651005923748016	-1.9124152660369873	-0.0001239776611328125
H	-4.806639671325684	-1.4969351291656494	-2.548877716064453	-0.004578113555908203
H	-3.1682443618774414	-0.8297867774963379	-2.4934492111206055	-0.003521442413330078
H	-3.0107743740081787	-3.774235725402832	0.5481693148612976	-0.006799221038818359
H	-2.2372829914093018	-3.291091203689575	-0.9732009768486023	-0.007537364959716797
H	-3.879060983657837	-3.957948923110962	-0.9885460734367371	-0.008647441864013672
H	-1.1202528476715088	0.6283848881721497	2.934741735458374	-0.003196239471435547
H	0.36867251992225647	0.9325705766677856	2.019930839538574	-0.0035996437072753906
H	-0.1666812300682068	-0.7322788238525391	2.320704460144043	-0.0024924278259277344
H	-2.570589303970337	2.1559646129608154	-0.7714235186576843	0.006784915924072266
H	-2.666445255279541	2.450249433517456	0.9756494164466858	0.004650592803955078
H	-1.146569013595581	2.7410318851470947	0.11181416362524033	0.004787921905517578
H	2.3625879287719727	1.6636019945144653	-2.252678871154785	0.002388477325439453
H	1.3949795961380005	2.1961662769317627	-0.8667345643043518	0.004319667816162109
H	0.6445853114128113	2.0464282035827637	-2.467210292816162	0.005336761474609375
H	0.289958655834198	-0.7392034530639648	-3.746246576309204	-0.003944873809814453
H	2.003812313079834	-1.0898619890213013	-3.4621782302856445	-0.004539966583251953
H	0.7595162987709045	-2.19714617729187	-2.8551151752471924	-0.003976345062255859
H	4.9062418937683105	-2.1142184734344482	1.8157286643981934	0.003028392791748047
H	3.4158263206481934	-3.0020980834960938	1.4508434534072876	0.004543781280517578
H	3.3527541160583496	-1.5372955799102783	2.4479923248291016	0.004697322845458984
H	4.435585975646973	-1.2047914266586304	-2.2825775146484375	-0.002899646759033203
H	5.557864189147949	-1.9417548179626465	-1.1262315511703491	-0.0032629966735839844
H	4.065690994262695	-2.788445234298706	-1.5740243196487427	-0.0020585060119628906
H	5.959849834442139	0.15095776319503784	2.873350143432617	-0.005063533782958984
H	6.672062397003174	1.7728540897369385	2.9329476356506348	-0.006512165069580078
H	4.924458026885986	1.5640273094177246	3.145296096801758	-0.005648136138916016
H	6.293954372406006	3.7501630783081055	0.6753755807876587	-0.003983020782470703
H	5.250038146972656	3.3672008514404297	-0.7056275010108948	-0.0016579627990722656
H	4.537840366363525	3.6399099826812744	0.8938283324241638	-0.0027213096618652344
H	10.32082462310791	2.343703269958496	-0.10032434016466141	-0.01022195816040039
H	8.945929527282715	2.895467758178711	0.8693071007728577	-0.010000228881835938
H	8.876262664794922	2.988101005554199	-0.9015842080116272	-0.007825374603271484
H	8.678670883178711	-1.1918511390686035	-1.764901876449585	-0.01143789291381836
H	8.742293357849121	0.383408784866333	-2.5765912532806396	-0.010854244232177734
H	10.17146110534668	-0.23509395122528076	-1.7248340845108032	-0.01210641860961914
H	8.74909496307373	-1.3387596607208252	1.3321032524108887	-0.009479999542236328
H	8.857534408569336	0.1502428650856018	2.286928415298462	-0.008944034576416016
H	10.2412691116333	-0.37662509083747864	1.3131986856460571	-0.010628223419189453
