67
C[SI](C)(C)O[SI](C)(C)O[SI](C)(C)O[SI](C)(C)O[SI](C)(C)O[SI](C)(C)C
C	8.042590141296387	0.6017749309539795	-0.4209699332714081	-0.0623316764831543
Si	6.214698314666748	1.0353829860687256	-0.2763995826244354	-0.1428084373474121
C	6.0557684898376465	2.5660033226013184	0.8060752153396606	-0.05454826354980469
C	5.570734977722168	1.4503861665725708	-1.9964009523391724	-0.04181623458862305
O	5.37563419342041	-0.2513062059879303	0.3835268020629883	-0.07521295547485352
Si	3.821317672729492	-0.6778846383094788	0.8237480521202087	-0.11127471923828125
C	3.342909812927246	0.16858375072479248	2.430140733718872	-0.03595113754272461
C	3.7300450801849365	-2.5332040786743164	1.1015846729278564	-0.015157699584960938
O	2.8073105812072754	-0.2110399752855301	-0.4112120568752289	-0.07323813438415527
Si	1.2355397939682007	-0.4005911946296692	-0.9298290610313416	-0.12107419967651367
C	1.0454386472702026	-2.0503838062286377	-1.8102577924728394	-0.037282466888427734
C	0.8047156929969788	0.9581982493400574	-2.149324417114258	-0.02363300323486328
O	0.24742209911346436	-0.32624080777168274	0.40917569398880005	-0.07323598861694336
Si	-1.3096585273742676	-0.6912824511528015	0.8823397755622864	-0.11550521850585938
C	-1.6885286569595337	0.17250309884548187	2.5075225830078125	-0.05122184753417969
C	-1.454964518547058	-2.5389437675476074	1.1828103065490723	-0.03177762031555176
O	-2.3392884731292725	-0.15947285294532776	-0.3058358430862427	-0.07647085189819336
Si	-3.645906686782837	-0.5693156719207764	-1.2452747821807861	-0.13335037231445312
C	-4.228087902069092	-2.329329252243042	-0.9445973634719849	-0.06119537353515625
C	-3.1693363189697266	-0.446471244096756	-3.0627660751342773	-0.056867361068725586
O	-4.8834381103515625	0.5008745789527893	-0.9207678437232971	-0.08381080627441406
Si	-5.727614879608154	1.1818509101867676	0.34798040986061096	-0.16676688194274902
C	-6.0644965171813965	-0.08347813040018082	1.6983798742294312	-0.06510543823242188
C	-4.772033214569092	2.616948366165161	1.0925670862197876	-0.02267289161682129
C	-7.384833812713623	1.8347567319869995	-0.2628520131111145	-0.03145170211791992
H	8.459060668945312	0.35493960976600647	0.5617174506187439	-0.008525848388671875
H	8.607109069824219	1.4436997175216675	-0.8324384689331055	-0.007719516754150391
H	8.180610656738281	-0.2608112394809723	-1.0808594226837158	-0.008514642715454102
H	6.423742294311523	2.362755537033081	1.8176796436309814	-0.006856441497802734
H	6.637999057769775	3.3927102088928223	0.38783228397369385	-0.0057332515716552734
H	5.010115623474121	2.884420871734619	0.8765641450881958	-0.0049381256103515625
H	4.526829719543457	1.778015375137329	-1.952536940574646	-0.0012993812561035156
H	6.1626715660095215	2.2536308765411377	-2.445113182067871	-0.0024826526641845703
H	5.629338264465332	0.5737095475196838	-2.649310827255249	-0.003509044647216797
H	2.3473575115203857	-0.14877240359783173	2.7552757263183594	-0.0010585784912109375
H	3.3318986892700195	1.2556068897247314	2.3070549964904785	-0.0018343925476074219
H	4.056422233581543	-0.07987381517887115	3.2218220233917236	-0.0024416446685791016
H	4.432213306427002	-2.839163064956665	1.883109211921692	0.0041408538818359375
H	3.98083233833313	-3.0749309062957764	0.18425513803958893	0.0027282238006591797
H	2.722912073135376	-2.8282642364501953	1.4106643199920654	0.005084991455078125
H	1.2532340288162231	-2.8792641162872314	-1.1268818378448486	-0.0007781982421875
H	0.02820080704987049	-2.1701745986938477	-2.1963653564453125	-0.0018534660339355469
H	1.7412688732147217	-2.1178669929504395	-2.651973009109497	-0.0019860267639160156
H	-0.2188466340303421	0.8418945670127869	-2.5180861949920654	0.002707242965698242
H	0.8898482322692871	1.9406838417053223	-1.6758670806884766	0.004369974136352539
H	1.4825451374053955	0.932732343673706	-3.00785756111145	0.0004405975341796875
H	-2.707976818084717	-0.04857119545340538	2.836526393890381	-0.005384206771850586
H	-1.5890741348266602	1.256593108177185	2.3970139026641846	-0.005484104156494141
H	-0.996853232383728	-0.15659596025943756	3.2889063358306885	-0.0062830448150634766
H	-2.4435784816741943	-2.7951862812042236	1.5750200748443604	-0.00013685226440429688
H	-0.7067738175392151	-2.8662636280059814	1.9113225936889648	0.0005624294281005859
H	-1.2932974100112915	-3.0983641147613525	0.2561461925506592	-0.001749277114868164
H	-5.106195449829102	-2.549463987350464	-1.5603456497192383	-0.007611751556396484
H	-3.4443066120147705	-3.0487358570098877	-1.20247220993042	-0.008327007293701172
H	-4.5050506591796875	-2.4778246879577637	0.10335511714220047	-0.006862640380859375
H	-2.843885660171509	0.5700324177742004	-3.3043336868286133	-0.0038776397705078125
H	-4.020648002624512	-0.6972545385360718	-3.702392816543579	-0.007254123687744141
H	-2.3497297763824463	-1.1343647241592407	-3.292609214782715	-0.007429599761962891
H	-5.128463268280029	-0.4669341742992401	2.1152663230895996	-0.0073091983795166016
H	-6.641908645629883	0.36778080463409424	2.510939598083496	-0.007913589477539062
H	-6.634851932525635	-0.92825847864151	1.3005889654159546	-0.008018255233764648
H	-4.586427688598633	3.385986566543579	0.3362524211406708	0.0070497989654541016
H	-5.335729122161865	3.0708649158477783	1.913383960723877	0.002727508544921875
H	-3.807724952697754	2.280973434448242	1.483528971672058	0.0024008750915527344
H	-7.981482982635498	1.0228668451309204	-0.688869059085846	-0.00023984909057617188
H	-7.236962795257568	2.5958361625671387	-1.0349643230438232	0.004602909088134766
H	-7.950379848480225	2.282886505126953	0.5596874356269836	0.00029921531677246094
