30
C[SI]1(O[SI](O[SI](O1)(C)C)(C)C)C
C	3.176510810852051	-0.7485707402229309	0.7544244527816772	-0.011879712343215942
Si	1.6926242113113403	-0.45152416825294495	-0.34407472610473633	-0.07374098896980286
O	0.4377559721469879	-1.4921122789382935	0.0633298009634018	-0.044221192598342896
Si	-1.1953126192092896	-1.2676604986190796	0.3892187476158142	-0.07684007287025452
O	-1.4142347574234009	0.3934432864189148	0.5169000625610352	-0.047883540391922
Si	-0.44097983837127686	1.7207365036010742	0.17842797935009003	-0.08066895604133606
O	1.092517614364624	1.1018668413162231	-0.11970116943120956	-0.04852369427680969
C	-1.0805095434188843	2.6306087970733643	-1.3273242712020874	0.007786452770233154
C	-0.4045245349407196	2.8973782062530518	1.6313692331314087	-0.015015631914138794
C	-1.670690894126892	-2.118476152420044	1.9851446151733398	-0.021282047033309937
C	-2.238517999649048	-1.957214593887329	-1.003761887550354	-0.03242453932762146
C	2.195146083831787	-0.704348087310791	-2.1294898986816406	-0.02234402298927307
H	2.9128527641296387	-0.6077407598495483	1.8068755865097046	0.0018560290336608887
H	3.985621452331543	-0.053966689854860306	0.5100023746490479	0.0014820694923400879
H	3.552858352661133	-1.7683769464492798	0.630995512008667	0.001499265432357788
H	-1.1131503582000732	1.9657959938049316	-2.195664405822754	0.006163835525512695
H	-0.43391335010528564	3.4787378311157227	-1.5710484981536865	0.0077095627784729
H	-2.091045379638672	3.010423183441162	-1.150209665298462	0.008234232664108276
H	-1.4065077304840088	3.2808618545532227	1.8454906940460205	0.0023905038833618164
H	-0.03399353474378586	2.392575740814209	2.528522253036499	-0.0009201467037200928
H	0.25023990869522095	3.749114513397217	1.4247136116027832	0.001232743263244629
H	-2.7272329330444336	-1.9510964155197144	2.214449167251587	-0.0008195638656616211
H	-1.5032076835632324	-3.1972999572753906	1.9146766662597656	-0.0005875527858734131
H	-1.0760401487350464	-1.7351558208465576	2.819685220718384	-0.00101432204246521
H	-3.3020832538604736	-1.7874525785446167	-0.8118743300437927	-0.0034530162811279297
H	-1.9821076393127441	-1.4770668745040894	-1.9528499841690063	-0.0038634538650512695
H	-2.077791213989258	-3.0339338779449463	-1.1117137670516968	-0.004739582538604736
H	2.991725206375122	-0.008911484852433205	-2.4099204540252686	-0.0008254945278167725
H	1.345108151435852	-0.5369307398796082	-2.79766845703125	-0.0011633634567260742
H	2.558882713317871	-1.723704218864441	-2.288924217224121	-0.0015991032123565674
