8
C[SIH3]
C	-0.965530276298523	0.014860419556498528	0.06025976315140724	-0.0312921404838562
Si	0.8750325441360474	-0.01346800196915865	-0.054611656814813614	-0.0754360556602478
H	-1.42046320438385	0.1901271790266037	-0.9194421172142029	-0.0005597472190856934
H	-1.352831482887268	-0.9348943829536438	0.44165468215942383	-0.001580655574798584
H	-1.307860255241394	0.8075805902481079	0.7324970364570618	-0.0010349154472351074
H	1.4725279808044434	-0.25226786732673645	1.2836596965789795	-0.015424668788909912
H	1.318880558013916	-1.0947856903076172	-0.9704426527023315	-0.015575706958770752
H	1.3802441358566284	1.2828477621078491	-0.5735747814178467	-0.01467674970626831
