37
C[SI](C)(C)O[SI](C)(C)O[SI](C)(C)C
C	1.9455146789550781	-1.530167818069458	1.2112336158752441	-0.013115406036376953
Si	2.450369358062744	-0.2733027935028076	-0.09202076494693756	-0.11597013473510742
C	3.798750400543213	0.8207170963287354	0.6295946836471558	-0.029664039611816406
C	3.168748617172241	-1.2048211097717285	-1.5598595142364502	-0.029407739639282227
O	1.1483650207519531	0.6497176289558411	-0.5866111516952515	-0.06903982162475586
Si	-0.1490093469619751	1.4953888654708862	0.03331076353788376	-0.10529035329818726
C	-0.9153494834899902	2.5631535053253174	-1.3079073429107666	0.0030486583709716797
C	0.3975691795349121	2.633132219314575	1.4236546754837036	-0.025445938110351562
O	-1.251374363899231	0.3839572072029114	0.609639048576355	-0.06768465042114258
Si	-2.3479056358337402	-0.7550146579742432	0.06911546736955643	-0.12486028671264648
C	-1.6107959747314453	-1.8289012908935547	-1.2860589027404785	-0.041445016860961914
C	-2.8619837760925293	-1.8737224340438843	1.4912834167480469	-0.038916707038879395
C	-3.888740062713623	0.0822901725769043	-0.6094775795936584	-0.02907419204711914
H	2.8076117038726807	-2.127507209777832	1.5224798917770386	0.004233837127685547
H	1.5391526222229004	-1.0298508405685425	2.095165252685547	0.0037152767181396484
H	1.1829860210418701	-2.2090280055999756	0.8191859126091003	0.003936290740966797
H	4.123707294464111	1.5639808177947998	-0.10434280335903168	-0.0008759498596191406
H	3.4352874755859375	1.3487048149108887	1.5159400701522827	-0.00039386749267578125
H	4.666610240936279	0.22110863029956818	0.9195511937141418	-0.0005125999450683594
H	3.5013861656188965	-0.5056303143501282	-2.3326077461242676	-0.0005745887756347656
H	4.0256829261779785	-1.810360312461853	-1.2505894899368286	-0.0007567405700683594
H	2.4170727729797363	-1.8687336444854736	-1.9969515800476074	-0.0003845691680908203
H	-0.19630368053913116	3.3065781593322754	-1.6644752025604248	0.008620142936706543
H	-1.7942705154418945	3.090991735458374	-0.9262437224388123	0.009453535079956055
H	-1.224623441696167	1.9516007900238037	-2.1606063842773438	0.007356166839599609
H	1.1534349918365479	3.34025502204895	1.0694986581802368	0.0007710456848144531
H	-0.4524039626121521	3.203678607940674	1.80949068069458	0.0012929439544677734
H	0.825127899646759	2.0576014518737793	2.249911308288574	-0.0014764070510864258
H	-2.3394978046417236	-2.5702288150787354	-1.6271263360977173	-0.004387855529785156
H	-0.7276347875595093	-2.3606388568878174	-0.920976996421814	-0.003404378890991211
H	-1.314983606338501	-1.219783902168274	-2.145275354385376	-0.0033742189407348633
H	-3.3225884437561035	-1.2886406183242798	2.2926435470581055	-0.0030056238174438477
H	-3.584005355834961	-2.6221439838409424	1.1518553495407104	-0.0034513473510742188
H	-1.9922130107879639	-2.394953966140747	1.9019696712493896	-0.0020885467529296875
H	-3.640455961227417	0.7101573348045349	-1.4700716733932495	0.0014336109161376953
H	-4.622546672821045	-0.663337230682373	-0.9294058084487915	-0.0018477439880371094
H	-4.350691318511963	0.7137537002563477	0.155085027217865	0.0003838539123535156
