14
C[SI](C)(C)I
C	1.6925232410430908	-0.5218570232391357	-0.160952627658844	-0.012308239936828613
Si	0.017625637352466583	0.07239080965518951	0.384518563747406	-0.14649665355682373
C	-0.4403693974018097	1.6567744016647339	-0.47333794832229614	-0.005379915237426758
C	-1.2762234210968018	-1.233778476715088	0.10914839059114456	-0.02161884307861328
I	0.12874935567378998	0.5288007259368896	2.808889865875244	-0.06324225664138794
H	1.6967040300369263	-0.7392157316207886	-1.2335633039474487	0.0018512606620788574
H	2.46215558052063	0.2325444370508194	0.02943882904946804	0.0018121600151062012
H	1.979308009147644	-1.4372085332870483	0.36591657996177673	0.0022276639938354492
H	-0.5031223297119141	1.5077879428863525	-1.5557515621185303	0.003918051719665527
H	-1.4117498397827148	2.0265748500823975	-0.1307397335767746	0.004320025444030762
H	0.3031731843948364	2.4378254413604736	-0.286770224571228	0.0036197900772094727
H	-1.365206241607666	-1.4734731912612915	-0.9549869894981384	-0.0011960268020629883
H	-2.257826089859009	-0.8993298411369324	0.4588702619075775	9.775161743164062e-06
H	-1.025741457939148	-2.1578357219696045	0.639319896697998	-0.00036448240280151367
