40
C[SI](C)(C)N([SI](C)(C)C)[SI](C)(C)C
C	-1.9983289241790771	2.20500111579895	-0.965892493724823	-0.0015567541122436523
Si	-0.4730367660522461	1.6245912313461304	0.009023630060255527	-0.12036716938018799
C	0.8129181265830994	2.9470152854919434	-0.4469914138317108	-0.01509702205657959
C	-0.8012267351150513	1.8593863248825073	1.8513957262039185	-0.030770421028137207
N	-0.06224246695637703	0.006563144735991955	-0.3938966393470764	-0.07018876075744629
Si	1.6047004461288452	-0.40422749519348145	-0.3530983626842499	-0.1126483678817749
C	2.566526412963867	0.5082570314407349	-1.7154910564422607	-0.027276158332824707
C	2.0227468013763428	-2.220242738723755	-0.7242588400840759	-0.02182924747467041
C	2.4089126586914062	-0.03547634556889534	1.3125663995742798	-0.024260878562927246
Si	-1.1745691299438477	-1.2158398628234863	0.07254940271377563	-0.11726129055023193
C	-1.1777986288070679	-2.6489810943603516	-1.1764293909072876	-0.04178202152252197
C	-3.005652904510498	-0.7088496088981628	0.09549318999052048	-0.03890538215637207
C	-0.8245073556900024	-1.906489610671997	1.7923266887664795	-0.026829123497009277
H	-1.9606528282165527	3.2905397415161133	-1.1013942956924438	0.008814573287963867
H	-2.0243947505950928	1.7402540445327759	-1.955751895904541	0.006332874298095703
H	-2.9256839752197266	1.9788559675216675	-0.43566709756851196	0.007143974304199219
H	1.0313868522644043	2.9255053997039795	-1.5180858373641968	0.004553675651550293
H	0.4088813364505768	3.9374780654907227	-0.21261471509933472	0.004752039909362793
H	1.7380197048187256	2.8324005603790283	0.12242811173200607	0.0018451213836669922
H	-0.9747992753982544	2.9186244010925293	2.065732002258301	0.0005954504013061523
H	-1.6841243505477905	1.3069500923156738	2.1823389530181885	-0.0009266138076782227
H	0.05453312024474144	1.5320320129394531	2.44826340675354	-0.0020829439163208008
H	3.440080165863037	-0.08145272731781006	-2.010990858078003	-0.00037288665771484375
H	1.9399495124816895	0.653186023235321	-2.600299835205078	5.3048133850097656e-05
H	2.9339187145233154	1.4767078161239624	-1.3699549436569214	0.0010728836059570312
H	3.110853672027588	-2.3419806957244873	-0.7442049980163574	0.0012167692184448242
H	1.636167049407959	-2.894702434539795	0.04310637712478638	0.0020312070846557617
H	1.6402842998504639	-2.515846014022827	-1.704960584640503	0.0016552209854125977
H	3.44384503364563	-0.3918010890483856	1.3123542070388794	0.0009883642196655273
H	2.4289698600769043	1.0357179641723633	1.527875542640686	0.0005745887756347656
H	1.8800632953643799	-0.5410327911376953	2.125258445739746	0.001353144645690918
H	-0.9811659455299377	-2.281078577041626	-2.1876039505004883	-0.003987908363342285
H	-2.157294988632202	-3.1376113891601562	-1.1774332523345947	-0.004248976707458496
H	-0.4386836588382721	-3.410179853439331	-0.9184489846229553	-0.0033483505249023438
H	-3.3207859992980957	-0.3412145972251892	-0.8847977519035339	-0.002177119255065918
H	-3.212409019470215	0.045241307467222214	0.8582429885864258	-0.0024427175521850586
H	-3.618504285812378	-1.5850838422775269	0.3317584991455078	-0.0038437843322753906
H	-0.8103958368301392	-1.1095309257507324	2.540921688079834	-0.0003826618194580078
H	0.13110700249671936	-2.435027599334717	1.833152174949646	0.0007635354995727539
H	-1.6076064109802246	-2.6176583766937256	2.0734798908233643	0.0007456541061401367
