14
C[SI](C)(C)CL
C	1.646967887878418	-0.22404548525810242	-0.6235055327415466	-0.015997588634490967
Si	0.10809538513422012	-0.04855544492602348	0.4044116735458374	-0.13545280694961548
C	-1.1296451091766357	-1.3693093061447144	-0.01885608769953251	-0.02241671085357666
C	-0.6328109502792358	1.6452323198318481	0.21028922498226166	-0.01160883903503418
Cl	0.6358715891838074	-0.2856377065181732	2.3789849281311035	-0.05383181571960449
H	2.3901097774505615	0.5323112607002258	-0.35288456082344055	0.0012208819389343262
H	1.4206478595733643	-0.10586461424827576	-1.687618613243103	0.0012572407722473145
H	2.1031033992767334	-1.2091338634490967	-0.4852479100227356	0.0011714696884155273
H	-2.0228710174560547	-1.2879024744033813	0.6081150770187378	-4.011392593383789e-05
H	-0.7058853507041931	-2.367751121520996	0.12645132839679718	-0.0007578730583190918
H	-1.4449219703674316	-1.2878165245056152	-1.063597559928894	-0.0008793473243713379
H	-0.9321824312210083	1.8233054876327515	-0.827106773853302	0.0034258365631103516
H	-1.5202370882034302	1.7617870569229126	0.8399415612220764	0.002219974994659424
H	0.08375813812017441	2.4233806133270264	0.4906233549118042	0.0018586516380310059
