10
C[SI](C)CL
C	-1.4912197589874268	-0.3687261641025543	0.2561520040035248	-0.02005314826965332
Si	-0.032175179570913315	0.7552165389060974	0.3814845085144043	-0.12412852048873901
C	1.5542640686035156	-0.08788393437862396	-0.042964693158864975	-0.012536287307739258
Cl	-0.30335336923599243	2.3438282012939453	-0.8880432844161987	-0.06040596961975098
H	-2.4168410301208496	0.15025867521762848	0.5238667726516724	0.0002334117889404297
H	-1.3865916728973389	-1.2261818647384644	0.928151547908783	-0.0004856586456298828
H	-1.6091769933700562	-0.7569876909255981	-0.7603453397750854	-0.0005574226379394531
H	2.4045188426971436	0.5948746800422668	0.05030786618590355	0.0015194416046142578
H	1.542227864265442	-0.46639958024024963	-1.069858193397522	0.0015316009521484375
H	1.7383472919464111	-0.93799889087677	0.6212487816810608	0.0017690658569335938
