127
C[SI](C)(C)O[SI](C)(C)O[SI](C)(C)O[SI](C)(C)O[SI](C)(C)O[SI](C)(C)O[SI](C)(C)O[SI](C)(C)O[SI](C)(C)O[SI](C)(C)O[SI](C)(C)O[SI](C)(C)C
C	-12.718257904052734	-3.7469406127929688	-2.8134286403656006	-0.15990018844604492
Si	-11.725175857543945	-3.549619197845459	-1.2286388874053955	-0.26854848861694336
C	-12.844698905944824	-3.9657435417175293	0.22781309485435486	-0.17138242721557617
C	-10.314497947692871	-4.790978908538818	-1.2594614028930664	-0.16816091537475586
O	-11.141433715820312	-1.9890934228897095	-1.102181315422058	-0.12947607040405273
Si	-10.361262321472168	-0.9752852320671082	-0.02701747976243496	-0.21560049057006836
C	-11.563986778259277	-0.3807530105113983	1.2895492315292358	-0.12168550491333008
C	-8.960554122924805	-1.8825006484985352	0.8499245047569275	-0.12256193161010742
O	-9.782033920288086	0.3176579475402832	-0.9034938812255859	-0.11836385726928711
Si	-8.497021675109863	1.3799564838409424	-0.9286738038063049	-0.21332502365112305
C	-8.557433128356934	2.50126576423645	0.57325679063797	-0.047421932220458984
C	-8.594118118286133	2.468812942504883	-2.448031425476074	-0.017075538635253906
O	-7.107486724853516	0.46536535024642944	-0.9284658432006836	-0.11733579635620117
Si	-5.451313495635986	0.5617209076881409	-1.0566964149475098	-0.19881486892700195
C	-4.850996971130371	-0.7560672760009766	-2.2565419673919678	-0.06611967086791992
C	-4.9066925048828125	2.22622013092041	-1.7395029067993164	0.0036802291870117188
O	-4.813840866088867	0.28188076615333557	0.45622822642326355	-0.10989141464233398
Si	-4.082081317901611	1.0721995830535889	1.7257640361785889	-0.18975400924682617
C	-5.202343940734863	2.439358949661255	2.361656665802002	-0.054090023040771484
C	-3.7921969890594482	-0.12351266294717789	3.1460506916046143	-0.09454679489135742
O	-2.625643014907837	1.6644787788391113	1.1875593662261963	-0.10668325424194336
Si	-1.5785460472106934	2.9460813999176025	1.3440860509872437	-0.1802382469177246
C	-1.7076400518417358	3.737621545791626	3.045034885406494	-0.0436863899230957
C	-2.004422903060913	4.2761549949646	0.08016318827867508	0.0184326171875
O	-0.03433796018362045	2.380591869354248	1.0758883953094482	-0.10557889938354492
Si	1.2356756925582886	1.65756356716156	1.8811980485916138	-0.16256093978881836
C	0.6414888501167297	0.15026842057704926	2.829577922821045	-0.04841947555541992
C	1.9728939533233643	2.867579460144043	3.1309354305267334	-0.06326818466186523
O	2.3874266147613525	1.2446085214614868	0.7525777816772461	-0.1023564338684082
Si	3.812587022781372	0.3975640833377838	0.5983263850212097	-0.16101980209350586
C	3.453153371810913	-1.412309169769287	0.2579726576805115	-0.03019428253173828
C	4.825835227966309	0.4761274755001068	2.1809580326080322	-0.05128812789916992
O	4.664203643798828	1.1087220907211304	-0.6425641179084778	-0.10353899002075195
Si	5.489016056060791	0.7356299161911011	-2.0368492603302	-0.1809229850769043
C	6.241382598876953	2.29278826713562	-2.766247034072876	-0.050549983978271484
C	4.319782733917236	0.003700818633660674	-3.3135483264923096	-0.0585331916809082
O	6.694035530090332	-0.3452097475528717	-1.643246054649353	-0.1071467399597168
Si	7.7534685134887695	-1.4226340055465698	-2.345212936401367	-0.18474531173706055
C	8.304434776306152	-0.8332682847976685	-4.0448198318481445	-0.10967683792114258
C	6.927438259124756	-3.0969884395599365	-2.5604240894317627	-0.09391546249389648
O	9.073768615722656	-1.5605394840240479	-1.3369052410125732	-0.10791158676147461
Si	10.076010704040527	-0.5965725779533386	-0.41595005989074707	-0.18338346481323242
C	10.609109878540039	0.91984623670578	-1.3812259435653687	-0.10622739791870117
C	9.169525146484375	-0.00817928183823824	1.1267077922821045	-0.09396123886108398
O	11.40650749206543	-1.5184602737426758	-0.004657848738133907	-0.11136388778686523
Si	12.767094612121582	-1.488026738166809	0.9617049694061279	-0.2071986198425293
C	13.671539306640625	0.15485721826553345	0.8188067674636841	-0.1387934684753418
C	13.953387260437012	-2.853487491607666	0.4507204294204712	-0.15470075607299805
C	12.310406684875488	-1.7457077503204346	2.76580548286438	-0.11483430862426758
H	-13.571370124816895	-3.0585548877716064	-2.825824022293091	-0.0249176025390625
H	-13.110001564025879	-4.767331123352051	-2.901811361312866	-0.028306007385253906
H	-12.092613220214844	-3.5420093536376953	-3.688800573348999	-0.026716232299804688
H	-13.224498748779297	-4.985701560974121	0.14062607288360596	-0.03140592575073242
H	-13.69378662109375	-3.2786710262298584	0.2578968107700348	-0.028289794921875
H	-12.29808235168457	-3.8850908279418945	1.170629858970642	-0.02964305877685547
H	-9.650888442993164	-4.605426788330078	-2.1107664108276367	-0.02784442901611328
H	-9.727027893066406	-4.732304573059082	-0.338095486164093	-0.02834320068359375
H	-10.702678680419922	-5.810892581939697	-1.3482258319854736	-0.029981613159179688
H	-11.08667278289795	0.35445907711982727	1.948969841003418	-0.016503334045410156
H	-12.434733390808105	0.09290067851543427	0.8264847993850708	-0.015945911407470703
H	-11.911288261413574	-1.2158266305923462	1.9068543910980225	-0.019277572631835938
H	-8.241399765014648	-2.2713510990142822	0.12227020412683487	-0.016185760498046875
H	-9.351171493530273	-2.71824312210083	1.4409162998199463	-0.01913166046142578
H	-8.425130844116211	-1.2087405920028687	1.5275566577911377	-0.016936779022216797
H	-7.719532012939453	3.2043020725250244	0.5646435618400574	0.005558490753173828
H	-9.487236022949219	3.078105926513672	0.5854443907737732	0.0024819374084472656
H	-8.512431144714355	1.9169174432754517	1.4971905946731567	-0.00177001953125
H	-8.513331413269043	1.878251552581787	-3.365036964416504	0.007962226867675781
H	-9.548698425292969	3.0077154636383057	-2.471430540084839	0.010955333709716797
H	-7.794022560119629	3.21783447265625	-2.4426395893096924	0.013228416442871094
H	-5.1183671951293945	-1.7538456916809082	-1.8941216468811035	-0.005722522735595703
H	-3.7634546756744385	-0.7074251770973206	-2.3636064529418945	-0.0027170181274414062
H	-5.3047566413879395	-0.6139895915985107	-3.243267059326172	-0.003960132598876953
H	-5.272015571594238	3.0458712577819824	-1.114180088043213	0.017356395721435547
H	-3.816904067993164	2.2813942432403564	-1.7801674604415894	0.015689849853515625
H	-5.289430618286133	2.366453170776367	-2.7536003589630127	0.014147758483886719
H	-5.3647847175598145	3.1959128379821777	1.5906797647476196	0.002651691436767578
H	-4.762479782104492	2.9271202087402344	3.2343907356262207	-0.002884387969970703
H	-6.171764373779297	2.0285110473632812	2.656480550765991	-0.00360107421875
H	-3.2789289951324463	0.376364529132843	3.973215341567993	-0.01326894760131836
H	-3.1690866947174072	-0.9656223654747009	2.8253555297851562	-0.010897636413574219
H	-4.743637561798096	-0.5163406133651733	3.5186760425567627	-0.012989044189453125
H	-2.704831123352051	4.159923553466797	3.201707601547241	0.0026769638061523438
H	-0.9784173369407654	4.546060085296631	3.1461293697357178	0.00015926361083984375
H	-1.513730525970459	3.001265525817871	3.830026865005493	-0.002852916717529297
H	-3.0291237831115723	4.630821704864502	0.2349216490983963	0.018840789794921875
H	-1.3238551616668701	5.127701282501221	0.17331236600875854	0.016493797302246094
H	-1.9214729070663452	3.8781120777130127	-0.9355807304382324	0.01894378662109375
H	-0.10654810816049576	0.4410809874534607	3.574765205383301	-0.0030775070190429688
H	1.474044919013977	-0.3270338177680969	3.357267379760742	-0.0018782615661621094
H	0.19273576140403748	-0.592820405960083	2.159733295440674	-0.0007905960083007812
H	1.210146188735962	3.1914703845977783	3.840294361114502	-0.006371498107910156
H	2.7881662845611572	2.3972177505493164	3.690676689147949	-0.006923675537109375
H	2.363241672515869	3.7475969791412354	2.614417552947998	-0.004390716552734375
H	2.9373528957366943	-1.8661377429962158	1.1110492944717407	0.005297660827636719
H	2.815012216567993	-1.5227806568145752	-0.6232010126113892	0.0040073394775390625
H	4.379971027374268	-1.9679622650146484	0.08860202133655548	0.0018529891967773438
H	5.780860900878906	-0.0479021780192852	2.0509846210479736	-0.001544952392578125
H	5.03839635848999	1.513268232345581	2.456001043319702	-0.0028123855590820312
H	4.288849830627441	0.006585120689123869	3.0128114223480225	-0.002823352813720703
H	6.935034275054932	2.752763509750366	-2.054248094558716	-0.0006709098815917969
H	5.464564800262451	3.0264365673065186	-3.0117413997650146	0.0011320114135742188
H	6.797775745391846	2.065178155899048	-3.6806769371032715	-0.001705169677734375
H	3.8792808055877686	-0.9286403656005859	-2.9439258575439453	-0.002990245819091797
H	3.5120925903320312	0.7094784379005432	-3.5442392826080322	-0.0011448860168457031
H	4.855672836303711	-0.214604452252388	-4.2439985275268555	-0.004383087158203125
H	7.450929641723633	-0.7129546403884888	-4.716424942016602	-0.015598773956298828
H	8.992009162902832	-1.5555198192596436	-4.493988990783691	-0.018117427825927734
H	8.820025444030762	0.12617869675159454	-3.9715795516967773	-0.015548229217529297
H	6.605367183685303	-3.4942893981933594	-1.5913121700286865	-0.010038375854492188
H	7.623125076293945	-3.816038131713867	-3.011741876602173	-0.013936996459960938
H	6.046962261199951	-3.017763376235962	-3.206207752227783	-0.012562274932861328
H	9.745555877685547	1.5376278162002563	-1.6463176012039185	-0.013989448547363281
H	11.11706256866455	0.6296542882919312	-2.3034143447875977	-0.016758441925048828
H	11.297212600708008	1.531922698020935	-0.7941944599151611	-0.01631450653076172
H	9.823683738708496	0.6110626459121704	1.741422176361084	-0.01306295394897461
H	8.290831565856934	0.5848591923713684	0.8607932329177856	-0.011384010314941406
H	8.836433410644531	-0.8610426187515259	1.7276713848114014	-0.012330055236816406
H	13.939009666442871	0.35861676931381226	-0.22005555033683777	-0.025539398193359375
H	14.592244148254395	0.1403733640909195	1.4106608629226685	-0.025429725646972656
H	13.045191764831543	0.9742679595947266	1.1819401979446411	-0.023374557495117188
H	14.858752250671387	-2.8225910663604736	1.0651521682739258	-0.030303955078125
H	14.251301765441895	-2.7323834896087646	-0.5985872745513916	-0.030315876007080078
H	13.485940933227539	-3.8366281986236572	0.5711881518363953	-0.02839803695678711
H	11.790843963623047	-2.697256326675415	2.9029486179351807	-0.01743030548095703
H	11.6543550491333	-0.9438350796699524	3.1141724586486816	-0.01776123046875
H	13.20799446105957	-1.7528321743011475	3.391596794128418	-0.019371509552001953
