28
C[SI](C)(C)N[SI](C)(C)C
C	-2.9544169902801514	0.7320106029510498	-0.9472037553787231	-0.0190562903881073
Si	-1.4642525911331177	0.25051072239875793	0.11097059398889542	-0.1259063482284546
C	-1.4605540037155151	1.376080870628357	1.609096884727478	-0.02931120991706848
C	-1.6997857093811035	-1.5212148427963257	0.6436214447021484	-0.03276562690734863
N	-0.08911604434251785	0.5217201113700867	-0.8478968143463135	-0.06957769393920898
Si	1.4245456457138062	-0.11730071902275085	-0.4210483133792877	-0.12012720108032227
C	1.926438331604004	0.2604183554649353	1.337159276008606	-0.026079684495925903
C	1.5117026567459106	-1.959163784980774	-0.7379024624824524	-0.020260930061340332
C	2.689723253250122	0.7075310945510864	-1.5598633289337158	-0.024744540452957153
H	-3.0094387531280518	0.10360563546419144	-1.8410842418670654	0.0007683038711547852
H	-3.8808484077453613	0.6061862707138062	-0.379113107919693	0.001796633005142212
H	-2.881483316421509	1.7774442434310913	-1.2614185810089111	0.0042611658573150635
H	-0.7074795365333557	1.071637511253357	2.340383529663086	-0.0022623836994171143
H	-2.4351367950439453	1.349624752998352	2.106414794921875	-0.0008890926837921143
H	-1.2582347393035889	2.411447763442993	1.3185070753097534	0.0010803937911987305
H	-1.6487263441085815	-2.2026145458221436	-0.2110108882188797	-0.002765148878097534
H	-2.6804397106170654	-1.6504034996032715	1.1126456260681152	-0.0012645423412322998
H	-0.9457831978797913	-1.8255059719085693	1.3753936290740967	-0.001130133867263794
H	-0.010549082420766354	1.509825348854065	-1.0779800415039062	-0.010699301958084106
H	2.9715259075164795	-0.019410116598010063	1.5034428834915161	0.00019752979278564453
H	1.8285059928894043	1.3281750679016113	1.555482268333435	-0.00019469857215881348
H	1.3194549083709717	-0.296956330537796	2.0565450191497803	0.00040602684020996094
H	1.1223161220550537	-2.2043001651763916	-1.730713963508606	0.0015737414360046387
H	2.5493292808532715	-2.3041932582855225	-0.6894593834877014	0.001604706048965454
H	0.9426645636558533	-2.525890827178955	0.0032772256527096033	0.0019184350967407227
H	2.6911349296569824	1.7913422584533691	-1.410566806793213	0.0016727745532989502
H	2.4548094272613525	0.5010214447975159	-2.6082329750061035	-0.00010329484939575195
H	3.694094181060791	0.3283720016479492	-1.3494453430175781	0.0001157224178314209
