11
C[SI](C)(CL)CL
C	-1.5570403337478638	-0.1569090187549591	-0.262703001499176	-0.01649075746536255
Si	0.08161487430334091	0.6214399933815002	0.06247963383793831	-0.17016130685806274
C	1.4578888416290283	-0.5980585813522339	0.18679769337177277	-0.009049952030181885
Cl	-0.014180944301187992	1.7239024639129639	1.7869850397109985	-0.04779559373855591
Cl	0.5003888607025146	1.9782308340072632	-1.4147695302963257	-0.04972559213638306
H	-1.8298625946044922	-0.8554285764694214	0.5346229672431946	-0.00045353174209594727
H	-1.5506280660629272	-0.7174091339111328	-1.2028567790985107	-0.0006895065307617188
H	-2.3515305519104004	0.5929656028747559	-0.33082032203674316	0.0011584162712097168
H	1.563460111618042	-1.173069953918457	-0.7385708689689636	0.0018767714500427246
H	1.2842196226119995	-1.3110848665237427	0.9989076852798462	0.0021957755088806152
H	2.415670394897461	-0.10457872599363327	0.37992751598358154	0.0018522143363952637
