40
CC(C)C[SI](CC(C)C)CC(C)C
C	3.4449715614318848	-0.26695743203163147	0.8024070262908936	-0.01901423931121826
C	2.6323273181915283	0.25396794080734253	-0.3872556686401367	-0.06839001178741455
C	3.471097230911255	0.13871672749519348	-1.6641532182693481	-0.02586650848388672
C	1.3033512830734253	-0.5077822208404541	-0.5663812756538391	-0.04639029502868652
Si	-0.050841059535741806	-0.21276141703128815	0.6992442011833191	-0.09569799900054932
C	-1.6435730457305908	-1.1026774644851685	0.23739014565944672	-0.05694758892059326
C	-1.5823471546173096	-2.6380615234375	0.10366436839103699	-0.08277332782745361
C	-1.4341349601745605	-3.333730459213257	1.4607114791870117	-0.022890925407409668
C	-2.848740577697754	-3.1480839252471924	-0.591541588306427	-0.04867446422576904
C	-0.3506588041782379	1.5974152088165283	1.0918445587158203	-0.05314218997955322
C	-1.1468178033828735	2.445190668106079	0.07863900065422058	-0.0733346939086914
C	-1.6060417890548706	3.747063636779785	0.7450522184371948	-0.0009715557098388672
C	-0.3334576487541199	2.782867908477783	-1.1739438772201538	0.0028432607650756836
H	4.399008274078369	0.26567766070365906	0.8814286589622498	-0.0007687807083129883
H	3.664350986480713	-1.3349401950836182	0.6963896155357361	-0.0006345510482788086
H	2.9126274585723877	-0.1212259978055954	1.7472046613693237	-0.0008565187454223633
H	2.4289045333862305	1.3194806575775146	-0.2230655997991562	-0.0030475854873657227
H	2.93265962600708	0.5551412105560303	-2.522174119949341	-0.0020149946212768555
H	4.411851406097412	0.690423846244812	-1.5634294748306274	-0.002497553825378418
H	3.7124528884887695	-0.9059266448020935	-1.8885446786880493	-0.003023982048034668
H	1.5079702138900757	-1.5851664543151855	-0.6022070646286011	-0.0004545450210571289
H	0.8776808381080627	-0.25256896018981934	-1.544385313987732	-0.00034224987030029297
H	-2.4156625270843506	-0.8295858502388	0.9673789739608765	-0.00299990177154541
H	-1.9642881155014038	-0.6771134734153748	-0.7218554615974426	-0.0029921531677246094
H	-0.7255435585975647	-2.9198644161224365	-0.5216770172119141	-0.006969332695007324
H	-0.4957340955734253	-3.0600082874298096	1.9523977041244507	-0.0006003379821777344
H	-1.4314626455307007	-4.422388553619385	1.3384343385696411	-0.0020197629928588867
H	-2.259094476699829	-3.073251485824585	2.132699966430664	-0.001021265983581543
H	-3.746396541595459	-2.8990414142608643	-0.015283821150660515	-0.007436871528625488
H	-2.8148562908172607	-4.23594856262207	-0.7137942910194397	-0.009055852890014648
H	-2.950993537902832	-2.7053680419921875	-1.588024616241455	-0.008089900016784668
H	-0.8942250609397888	1.6002057790756226	2.0455713272094727	-0.0018210411071777344
H	0.6129174828529358	2.079163074493408	1.2978054285049438	-0.0018972158432006836
H	-2.046841621398926	1.9002264738082886	-0.23324525356292725	0.0005151033401489258
H	-0.7515044212341309	4.344273567199707	1.0812159776687622	0.002833843231201172
H	-2.237858772277832	3.537867546081543	1.6148110628128052	0.0036760568618774414
H	-2.192730665206909	4.355752944946289	0.04872744902968407	0.00648343563079834
H	0.6044058799743652	3.286414384841919	-0.9160763621330261	0.004826664924621582
H	-0.09272018074989319	1.885792851448059	-1.7498700618743896	0.00410306453704834
H	-0.9000516533851624	3.446810722351074	-1.8361096382141113	0.007140636444091797
