23
CC[SIH](CC)CC
C	2.4264843463897705	0.8519815802574158	1.3220809698104858	-0.02432921528816223
C	1.4928994178771973	1.0222744941711426	0.13119809329509735	-0.049486398696899414
Si	-0.14674538373947144	0.092739537358284	0.24563908576965332	-0.10266916453838348
C	0.16545318067073822	-1.7639329433441162	0.39009132981300354	-0.04784524440765381
C	-1.079730749130249	-2.6273624897003174	0.5410544872283936	-0.02394413948059082
C	-1.2104711532592773	0.4586087167263031	-1.2709989547729492	-0.056116268038749695
C	-1.5788092613220215	1.9220346212387085	-1.4746973514556885	0.00042138993740081787
H	2.72232723236084	-0.1943361908197403	1.4534376859664917	-0.0016151666641235352
H	1.954939842224121	1.1896475553512573	2.2514054775238037	-0.0028989315032958984
H	3.3374063968658447	1.441070318222046	1.1732772588729858	-0.00155717134475708
H	1.2744026184082031	2.0889477729797363	0.007846594788134098	0.00018042325973510742
H	2.011652946472168	0.6968165040016174	-0.7776315212249756	-0.0006994009017944336
H	-0.8713309168815613	0.5506576299667358	1.4585257768630981	-0.02405361831188202
H	0.8170665502548218	-1.9358121156692505	1.254154920578003	0.0008152425289154053
H	0.7203576564788818	-2.0908074378967285	-0.49660661816596985	-0.00026914477348327637
H	-1.6532261371612549	-2.3498122692108154	1.4321691989898682	-0.0010780692100524902
H	-0.7975939512252808	-3.681011438369751	0.6368154883384705	-0.0022617876529693604
H	-1.7395188808441162	-2.5352721214294434	-0.3282889127731323	-0.0031543374061584473
H	-2.133521795272827	-0.1265614926815033	-1.1916072368621826	-0.0010897517204284668
H	-0.6805555820465088	0.09752188622951508	-2.1597096920013428	-0.0015567094087600708
H	-2.1336381435394287	2.317896842956543	-0.6170983910560608	0.005388118326663971
H	-0.6884536743164062	2.543586254119873	-1.6178737878799438	0.005245305597782135
H	-2.2093944549560547	2.0311248302459717	-2.3631839752197266	0.005136765539646149
