17
CC[SI](CC)(CL)CL
C	-2.8334009647369385	0.2548843324184418	-0.4475708603858948	-0.017541348934173584
C	-1.4872584342956543	-0.44660481810569763	-0.5763354301452637	-0.040147244930267334
Si	-0.024933885782957077	0.39418113231658936	0.2266114205121994	-0.16595786809921265
C	1.5520871877670288	-0.5782868266105652	-0.012862799689173698	-0.027163803577423096
C	2.8166399002075195	0.010093379765748978	0.5999032258987427	-0.011635839939117432
Cl	-0.38461989164352417	0.6528932452201843	2.2272047996520996	-0.04888492822647095
Cl	0.19903989136219025	2.28096866607666	-0.5405585169792175	-0.050496906042099
H	-3.1304564476013184	0.36702868342399597	0.600596010684967	-0.001461029052734375
H	-3.609997272491455	-0.32782500982284546	-0.9541008472442627	-0.0017247796058654785
H	-2.813540458679199	1.2510448694229126	-0.9022586941719055	0.0007720589637756348
H	-1.2673308849334717	-0.5791844129562378	-1.6422276496887207	-0.0016675591468811035
H	-1.5810456275939941	-1.4542701244354248	-0.154569610953331	-0.0018399357795715332
H	1.4041378498077393	-1.5836045742034912	0.3988646864891052	0.0012568235397338867
H	1.7178515195846558	-0.7085222005844116	-1.0887964963912964	0.0009021162986755371
H	3.044160842895508	0.9972577691078186	0.18371477723121643	1.823902130126953e-05
H	3.67142391204834	-0.6432955861091614	0.39581817388534546	-6.639957427978516e-05
H	2.727243185043335	0.11324149370193481	1.686567783355713	-0.00044590234756469727
