41
CCC[SI](CCC)(CCC)CCC
C	4.1372528076171875	-0.5395972728729248	-0.8477355241775513	-0.03089892864227295
C	2.6230268478393555	-0.5654582977294922	-0.9937217831611633	-0.04640233516693115
C	1.9323252439498901	-0.16763466596603394	0.31220322847366333	-0.04521894454956055
Si	0.02599528059363365	-0.12522242963314056	0.27527037262916565	-0.10937833786010742
C	-0.6446134448051453	-1.6122877597808838	-0.7153728008270264	-0.054444074630737305
C	-2.1702768802642822	-1.7117953300476074	-0.7900111079216003	-0.06203150749206543
C	-2.605985641479492	-2.9182095527648926	-1.607710361480713	-0.05970191955566406
C	-0.6101633310317993	1.5088592767715454	-0.4699305593967438	-0.043721675872802734
C	-0.31964945793151855	1.7281063795089722	-1.9553254842758179	-0.0438922643661499
C	-0.9407705068588257	3.0243358612060547	-2.4543063640594482	0.010716915130615234
C	-0.6135207414627075	-0.2557636499404907	2.083171844482422	-0.055971622467041016
C	-0.10735420882701874	0.8378538489341736	3.026609420776367	-0.06508386135101318
C	-0.660020649433136	0.6540454626083374	4.43173360824585	-0.056185245513916016
H	4.488836288452148	0.46334370970726013	-0.5853868722915649	-0.0027446746826171875
H	4.468465328216553	-1.235176920890808	-0.07005023956298828	-0.002882838249206543
H	4.6135735511779785	-0.8309363722801208	-1.789116621017456	-0.0034210681915283203
H	2.31437087059021	-1.5738756656646729	-1.2942097187042236	-0.0014247894287109375
H	2.334667682647705	0.11033352464437485	-1.8056986331939697	-0.001245260238647461
H	2.224668502807617	-0.8737568259239197	1.0988097190856934	0.0002461671829223633
H	2.278721332550049	0.8231581449508667	0.6290518641471863	-0.00020074844360351562
H	-0.23340365290641785	-1.5507104396820068	-1.7296122312545776	-0.002547621726989746
H	-0.23877719044685364	-2.522653579711914	-0.2586396038532257	-0.0024313926696777344
H	-2.58990740776062	-0.8053734302520752	-1.2427245378494263	-0.004141330718994141
H	-2.5967886447906494	-1.7925177812576294	0.21692973375320435	-0.0046405792236328125
H	-2.235464096069336	-3.8476107120513916	-1.1635979413986206	-0.009169340133666992
H	-2.2301204204559326	-2.8529915809631348	-2.6337761878967285	-0.00987696647644043
H	-3.698309898376465	-2.9733469486236572	-1.6490867137908936	-0.00909113883972168
H	-1.6935675144195557	1.5395972728729248	-0.30318230390548706	0.002357006072998047
H	-0.17622801661491394	2.3312289714813232	0.11093555390834808	0.0013443231582641602
H	-0.7107629776000977	0.8948206305503845	-2.5509212017059326	0.0010483264923095703
H	0.7612971067428589	1.767803430557251	-2.1284661293029785	0.0015851259231567383
H	-0.7171863913536072	3.1672873497009277	-3.516155481338501	0.006835222244262695
H	-2.0288896560668945	3.0091216564178467	-2.33555006980896	0.008380413055419922
H	-0.5462990999221802	3.8852012157440186	-1.9050886631011963	0.008569002151489258
H	-1.7087953090667725	-0.23507334291934967	2.0473721027374268	-0.0029276609420776367
H	-0.31742504239082336	-1.2405072450637817	2.463136672973633	-0.0027309656143188477
H	0.9883028268814087	0.8260873556137085	3.0708975791931152	-0.005929708480834961
H	-0.4010295867919922	1.8270143270492554	2.655423164367676	-0.00499272346496582
H	-1.7538087368011475	0.6983029842376709	4.43189001083374	-0.00835728645324707
H	-0.3543400764465332	-0.31011536717414856	4.850397109985352	-0.007499098777770996
H	-0.2880455255508423	1.4441136121749878	5.091545104980469	-0.009713888168334961
