31
CCC[SI](CCC)CCC
C	-2.240744113922119	-3.2973339557647705	0.45207032561302185	-0.03640085458755493
C	-1.413057804107666	-2.430198907852173	-0.4846661686897278	-0.055412232875823975
C	-1.4327489137649536	-0.9617739915847778	-0.05022246018052101	-0.057592809200286865
Si	-0.45352038741111755	0.21140584349632263	-1.1348826885223389	-0.09942728281021118
C	1.3570761680603027	-0.2460215836763382	-1.253708839416504	-0.050361692905426025
C	2.0877163410186768	-0.4807174801826477	0.07100288569927216	-0.0382576584815979
C	3.5410473346710205	-0.8687148094177246	-0.1583704948425293	-0.021067142486572266
C	-0.742598295211792	2.006340265274048	-0.6897174715995789	-0.03804600238800049
C	-0.4873037338256836	2.3937783241271973	0.7690008282661438	-0.046143949031829834
C	-0.7920173406600952	3.8643417358398438	1.0140312910079956	-0.008153021335601807
H	-2.2138512134552	-4.341344356536865	0.12457213550806046	-0.005609691143035889
H	-1.852003574371338	-3.2519547939300537	1.4743975400924683	-0.0031069517135620117
H	-3.2860546112060547	-2.9726552963256836	0.46631163358688354	-0.004824638366699219
H	-1.8065767288208008	-2.5299694538116455	-1.5038061141967773	-0.004721462726593018
H	-0.3838174045085907	-2.809069871902466	-0.5020461082458496	-0.00412362813949585
H	-2.4713387489318848	-0.6106651425361633	-0.023040860891342163	-0.0019683837890625
H	-1.0510990619659424	-0.8841221928596497	0.9748268723487854	-0.002646505832672119
H	1.8725277185440063	0.5433911085128784	-1.8139281272888184	-0.00036603212356567383
H	1.431071400642395	-1.1545990705490112	-1.8637207746505737	-0.001229703426361084
H	2.057528018951416	0.42278262972831726	0.6901214122772217	-0.00041538476943969727
H	1.5952156782150269	-1.276047945022583	0.6434149146080017	0.00026029348373413086
H	3.613227128982544	-1.7927724123001099	-0.7407983541488647	-0.0013407468795776367
H	4.045379161834717	-1.0309017896652222	0.7993918657302856	-0.001213669776916504
H	4.077550888061523	-0.08004286140203476	-0.6954590082168579	-0.0012621283531188965
H	-0.11432696878910065	2.625422954559326	-1.3414098024368286	0.0046329498291015625
H	-1.7820460796356201	2.2476751804351807	-0.9434670209884644	0.005112767219543457
H	0.5574007034301758	2.201343297958374	1.0377670526504517	-0.0014486908912658691
H	-1.1072156429290771	1.7865352630615234	1.439724326133728	-0.0006770491600036621
H	-0.6012585163116455	4.121298789978027	2.0607171058654785	0.0008205771446228027
H	-0.16358821094036102	4.504903316497803	0.38707348704338074	0.003515183925628662
H	-1.8405734300613403	4.089687347412109	0.7948209047317505	0.004429221153259277
