58
CCCCCC[SI](CCCCCC)CCCCCC
C	6.414149284362793	-2.0013909339904785	1.2693578004837036	-0.034818410873413086
C	5.644923686981201	-0.9791334867477417	0.44673797488212585	-0.06417608261108398
C	4.454033851623535	-0.36544156074523926	1.1881765127182007	-0.0485990047454834
C	3.3304734230041504	-1.3692989349365234	1.460216760635376	-0.035341501235961914
C	2.1427769660949707	-0.7708849906921387	2.228640556335449	-0.03892230987548828
C	1.410780906677246	0.39325717091560364	1.54897940158844	-0.05877280235290527
Si	0.5023146271705627	0.033705975860357285	-0.05739676207304001	-0.10484147071838379
C	-0.7119952440261841	-1.3894710540771484	0.15398761630058289	-0.05876731872558594
C	-1.5335222482681274	-1.7445894479751587	-1.0894227027893066	-0.057268619537353516
C	-2.453150987625122	-2.940136671066284	-0.8247809410095215	-0.07058143615722656
C	-3.3093721866607666	-3.2622928619384766	-2.0518455505371094	-0.08422470092773438
C	-4.181921005249023	-4.507053375244141	-1.8727307319641113	-0.10078597068786621
C	-5.253714084625244	-4.3486480712890625	-0.8044731616973877	-0.0775909423828125
C	-0.3608725368976593	1.5763112306594849	-0.7152828574180603	-0.04902505874633789
C	0.5357499122619629	2.8112735748291016	-0.8764157295227051	-0.036952972412109375
C	-0.17818142473697662	3.997347354888916	-1.5357921123504639	-0.02013707160949707
C	-0.7947671413421631	5.008306503295898	-0.5631881356239319	-0.019735097885131836
C	-1.9412444829940796	4.4540696144104	0.2797015905380249	-0.03751969337463379
C	-2.654388189315796	5.559207916259766	1.0463049411773682	0.01219797134399414
H	6.736477851867676	-1.5738061666488647	2.2244150638580322	-0.00424957275390625
H	5.811269283294678	-2.891404151916504	1.4723255634307861	-0.0024750232696533203
H	7.306868076324463	-2.325362205505371	0.7245981097221375	-0.0050029754638671875
H	6.332495212554932	-0.17116320133209229	0.16845647990703583	-0.006369113922119141
H	5.304970741271973	-1.4417529106140137	-0.48748430609703064	-0.0056476593017578125
H	4.794589042663574	0.07665882259607315	2.132269859313965	-0.00307464599609375
H	4.0708746910095215	0.45538124442100525	0.5720835328102112	-0.002149820327758789
H	3.7211453914642334	-2.1992111206054688	2.060635805130005	0.0018198490142822266
H	2.9890952110290527	-1.8075602054595947	0.515251636505127	0.001302957534790039
H	2.506284236907959	-0.42105892300605774	3.2036869525909424	-0.0018112659454345703
H	1.4296562671661377	-1.5771180391311646	2.4430484771728516	0.0001552104949951172
H	0.6622300744056702	0.7720682621002197	2.2559702396392822	-0.002595186233520508
H	2.106856107711792	1.2222410440444946	1.3841829299926758	-0.0019736289978027344
H	-0.14373262226581573	-2.2718751430511475	0.4713580906391144	-0.001596689224243164
H	-1.3915817737579346	-1.1382880210876465	0.9772787094116211	-0.0011920928955078125
H	-2.137871026992798	-0.8823071718215942	-1.399254322052002	-0.0045185089111328125
H	-0.8646201491355896	-1.9799171686172485	-1.927278757095337	-0.006347179412841797
H	-3.095036029815674	-2.7171614170074463	0.03424758464097977	-0.00769805908203125
H	-1.847890853881836	-3.8146591186523438	-0.5604241490364075	-0.008767127990722656
H	-2.6518607139587402	-3.4263522624969482	-2.9147567749023438	-0.013372421264648438
H	-3.9442427158355713	-2.400994300842285	-2.2963979244232178	-0.011640548706054688
H	-4.673652648925781	-4.725961685180664	-2.8285346031188965	-0.0163114070892334
H	-3.553900957107544	-5.373104572296143	-1.6338165998458862	-0.01518869400024414
H	-4.814294338226318	-4.2519121170043945	0.19135932624340057	-0.01316213607788086
H	-5.906954765319824	-5.227072715759277	-0.7933248281478882	-0.015411376953125
H	-5.875445365905762	-3.4682490825653076	-0.9965074062347412	-0.013110637664794922
H	-1.1951032876968384	1.7965656518936157	-0.04369517043232918	0.002910614013671875
H	-0.7978588938713074	1.321181297302246	-1.687290072441101	0.0029413700103759766
H	0.9619916081428528	3.11415433883667	0.08773990720510483	0.0017423629760742188
H	1.3864003419876099	2.539062261581421	-1.5148193836212158	0.002434253692626953
H	-0.9366401433944702	3.647318124771118	-2.2478528022766113	0.009781360626220703
H	0.5666359663009644	4.544743537902832	-2.1303558349609375	0.00910186767578125
H	-0.014580873772501945	5.405266284942627	0.09769084304571152	0.008260250091552734
H	-1.162105917930603	5.857704162597656	-1.1543112993240356	0.011879444122314453
H	-1.5572597980499268	3.7269129753112793	1.0027998685836792	0.004887104034423828
H	-2.6663360595703125	3.939650058746338	-0.36298224329948425	0.008516788482666016
H	-1.9641900062561035	6.078434467315674	1.7190860509872437	0.006915092468261719
H	-3.4662439823150635	5.139296531677246	1.6495771408081055	0.008978605270385742
H	-3.0885095596313477	6.2945146560668945	0.36024972796440125	0.011790037155151367
