57
CCCCO[SI](OCCCC)(OCCCC)OCCCC
C	5.1461501121521	-2.356163263320923	3.0483076572418213	-0.02262139320373535
C	4.943665504455566	-2.1836373805999756	1.5502970218658447	-0.04712986946105957
C	3.508754014968872	-2.4486241340637207	1.0948666334152222	-0.02892899513244629
C	2.4963936805725098	-1.4489803314208984	1.6529277563095093	-0.02568650245666504
O	1.209886908531189	-1.7579543590545654	1.1225528717041016	-0.06392598152160645
Si	0.38136017322540283	-0.5988617539405823	0.27239465713500977	-0.1256721019744873
O	1.2725163698196411	-0.15282589197158813	-1.0557548999786377	-0.07305288314819336
C	1.2663935422897339	1.1974396705627441	-1.5123789310455322	-0.04115128517150879
C	0.06582706421613693	1.4822567701339722	-2.421454429626465	-0.03670907020568848
C	0.1462778002023697	2.8390748500823975	-3.1251060962677	-0.035578012466430664
C	0.07484539598226547	4.021901607513428	-2.1676926612854004	0.017704248428344727
O	-1.0707261562347412	-1.2215452194213867	-0.23382747173309326	-0.07090306282043457
C	-1.0472668409347534	-2.3504230976104736	-1.098663091659546	-0.054700613021850586
C	-2.4797556400299072	-2.830960750579834	-1.3286162614822388	-0.06829452514648438
C	-3.3120667934417725	-1.8134222030639648	-2.1141252517700195	-0.07967162132263184
C	-4.727426528930664	-2.320556640625	-2.342924118041992	-0.06667876243591309
O	0.11544713377952576	0.7108865976333618	1.2533679008483887	-0.07103514671325684
C	-0.7930130958557129	0.6087654232978821	2.3435797691345215	-0.05735015869140625
C	-2.1514365673065186	1.23203706741333	2.0047402381896973	-0.05920243263244629
C	-2.0787315368652344	2.629621744155884	1.3819392919540405	-0.04909920692443848
C	-1.440734624862671	3.666685104370117	2.291349411010742	-0.022730350494384766
H	6.208796501159668	-2.2533493041992188	3.296537160873413	-0.0026526451110839844
H	4.599163055419922	-1.5986374616622925	3.6173622608184814	-0.001569986343383789
H	4.8159074783325195	-3.345834255218506	3.379263401031494	0.0003914833068847656
H	5.610090255737305	-2.8786401748657227	1.0267069339752197	-0.0015876293182373047
H	5.246990203857422	-1.1717751026153564	1.2562214136123657	-0.0016973018646240234
H	3.2044339179992676	-3.4670846462249756	1.368308186531067	0.0021822452545166016
H	3.4742870330810547	-2.413686513900757	-0.001519561279565096	0.0006868839263916016
H	2.81882381439209	-0.4228917360305786	1.433139681816101	0.002010345458984375
H	2.4257211685180664	-1.5475918054580688	2.741663932800293	0.0030977725982666016
H	2.1876986026763916	1.327130913734436	-2.093137264251709	-0.0001647472381591797
H	1.3295092582702637	1.906082272529602	-0.6771072149276733	0.0013434886932373047
H	-0.8667197823524475	1.4238629341125488	-1.844124436378479	0.0024411678314208984
H	-0.00607014074921608	0.6850977540016174	-3.176447629928589	-0.0004901885986328125
H	1.0702426433563232	2.9009172916412354	-3.713750123977661	0.004465341567993164
H	-0.6896969676017761	2.915050983428955	-3.833364963531494	0.0059621334075927734
H	0.04290255531668663	4.963579177856445	-2.725834608078003	0.010965108871459961
H	0.9488369226455688	4.05520486831665	-1.509925127029419	0.00841665267944336
H	-0.8247978091239929	3.970000982284546	-1.549760103225708	0.010621786117553711
H	-0.47566425800323486	-3.170927047729492	-0.644425630569458	-0.00464177131652832
H	-0.586523711681366	-2.087869644165039	-2.059242010116577	-0.004859447479248047
H	-2.9619674682617188	-3.0153915882110596	-0.3590138256549835	-0.008958578109741211
H	-2.453195810317993	-3.7814011573791504	-1.8753844499588013	-0.0101165771484375
H	-3.3545501232147217	-0.8586122393608093	-1.5800087451934814	-0.006986856460571289
H	-2.84010910987854	-1.620140552520752	-3.083258628845215	-0.010005474090576172
H	-5.300501823425293	-1.591174602508545	-2.926149606704712	-0.010343790054321289
H	-4.721354961395264	-3.2686052322387695	-2.8925230503082275	-0.013267755508422852
H	-5.246547698974609	-2.477534294128418	-1.3919148445129395	-0.010650396347045898
H	-0.931340754032135	-0.42650777101516724	2.682828426361084	-0.0046651363372802734
H	-0.34220021963119507	1.1415766477584839	3.187624931335449	-0.005645751953125
H	-2.6710660457611084	0.5803754925727844	1.2926043272018433	-0.004808187484741211
H	-2.768852949142456	1.2630493640899658	2.9087276458740234	-0.006234884262084961
H	-1.532476544380188	2.5907115936279297	0.4329380393028259	0.0018203258514404297
H	-3.0999808311462402	2.951735019683838	1.13811194896698	0.002382040023803711
H	-1.4922943115234375	4.656398773193359	1.8265087604522705	0.0019719600677490234
H	-1.9598685503005981	3.7177226543426514	3.2538704872131348	-0.00095367431640625
H	-0.3839838206768036	3.4444448947906494	2.478693962097168	-0.0014193058013916016
