33
CCO[SI](OCC)(OCC)OCC
C	-3.2984585762023926	2.1205379962921143	-0.5308988690376282	0.00197601318359375
C	-2.4761996269226074	0.9427260160446167	-0.03750862181186676	-0.04762658476829529
O	-1.1160839796066284	1.1773635149002075	-0.38000017404556274	-0.06443282961845398
Si	0.0012907028431072831	0.006400685757398605	-0.01153569482266903	-0.10886463522911072
O	1.5291357040405273	0.5861215591430664	-0.3007020950317383	-0.060757964849472046
C	1.9342118501663208	1.7805434465408325	0.35598519444465637	-0.042016953229904175
C	3.3672473430633545	2.0778768062591553	-0.04884234815835953	-0.021953314542770386
O	-0.1362413465976715	-0.40798628330230713	1.589685320854187	-0.05571994185447693
C	0.6222886443138123	-1.510701060295105	2.069500207901001	-0.034041136503219604
C	0.3608100116252899	-1.6521602869033813	3.5585455894470215	-0.02005884051322937
O	-0.27123281359672546	-1.3305788040161133	-0.9565610885620117	-0.05827400088310242
C	-0.10481914132833481	-1.2067924737930298	-2.363288164138794	-0.050721436738967896
C	-0.4081227779388428	-2.553293466567993	-2.9957754611968994	-0.04330131411552429
H	-2.9410300254821777	3.05424165725708	-0.08458326011896133	0.005399197340011597
H	-4.355099678039551	1.9906208515167236	-0.28061798214912415	0.0043732523918151855
H	-3.203571081161499	2.2291100025177	-1.6162116527557373	0.005259811878204346
H	-2.589097261428833	0.8564853668212891	1.0503573417663574	-0.0010972023010253906
H	-2.843256950378418	0.024232938885688782	-0.5126310586929321	-0.000474780797958374
H	1.887477993965149	1.658664584159851	1.4454494714736938	-0.0017319321632385254
H	1.2949436902999878	2.621333360671997	0.05978791043162346	0.00037363171577453613
H	3.7288153171539307	2.988083600997925	0.4372989237308502	-0.0020761489868164062
H	4.025141716003418	1.2458418607711792	0.22361336648464203	-0.002896130084991455
H	3.4425289630889893	2.202866792678833	-1.1339845657348633	-0.0011385083198547363
H	1.6948752403259277	-1.3449112176895142	1.9075429439544678	0.0010476112365722656
H	0.32155558466911316	-2.4360828399658203	1.562756896018982	0.0013263225555419922
H	-0.7045932412147522	-1.8216056823730469	3.747748851776123	-0.0015409886837005615
H	0.9297135472297668	-2.4871785640716553	3.977243423461914	-0.0008690953254699707
H	0.6353117227554321	-0.7338184714317322	4.088171482086182	-0.002608388662338257
H	-0.7937800884246826	-0.4555110037326813	-2.768967390060425	-0.0037016570568084717
H	0.9257173538208008	-0.9206721782684326	-2.607961893081665	-0.004524588584899902
H	-1.4263044595718384	-2.8748340606689453	-2.7517998218536377	-0.00772857666015625
H	0.26975980401039124	-3.321122884750366	-2.6086337566375732	-0.006633341312408447
H	-0.30293354392051697	-2.5058019161224365	-4.0831828117370605	-0.008236438035964966
