37
CCO[SI](CCCN)(OCC)OCC
C	-0.06302546709775925	0.15520325303077698	4.055056571960449	-0.03717905282974243
C	-0.8201587200164795	-0.10560648888349533	2.76548171043396	-0.050990521907806396
O	0.12187105417251587	-0.1373891830444336	1.6987520456314087	-0.061547279357910156
Si	-0.4403265714645386	-0.275215744972229	0.1333065629005432	-0.10645294189453125
C	0.8259255886077881	-1.2046539783477783	-0.9305989742279053	-0.03696101903915405
C	2.1946263313293457	-0.5280044674873352	-1.0546973943710327	-0.033473432064056396
C	3.1587135791778564	-1.3863897323608398	-1.872989296913147	-0.05492663383483887
N	4.454160690307617	-0.7320871353149414	-2.0117809772491455	-0.05741316080093384
O	-0.7191475629806519	1.2516498565673828	-0.47972366213798523	-0.0688852071762085
C	-0.006956806406378746	2.358682632446289	0.05906445533037186	-0.043393492698669434
C	-0.3511766195297241	3.588435411453247	-0.7621097564697266	0.010552942752838135
O	-1.8911080360412598	-1.1007819175720215	0.15899117290973663	-0.06534808874130249
C	-2.7246105670928955	-1.0571132898330688	-0.9932272434234619	-0.05250424146652222
C	-3.950347900390625	-1.9111019372940063	-0.7220744490623474	-0.04111570119857788
H	-0.7458982467651367	0.1859707087278366	4.908822059631348	-0.005804955959320068
H	0.6839568614959717	-0.6265954971313477	4.227735996246338	-0.004292786121368408
H	0.47701725363731384	1.1063865423202515	3.9992120265960693	-0.006117641925811768
H	-1.5567572116851807	0.6928734183311462	2.612415313720703	-0.003583371639251709
H	-1.3412421941757202	-1.0679821968078613	2.842362403869629	-0.003081679344177246
H	0.9487813711166382	-2.2047502994537354	-0.49819281697273254	-0.0005357861518859863
H	0.3959125578403473	-1.3391060829162598	-1.9297696352005005	-0.0007461309432983398
H	2.079608201980591	0.4528273344039917	-1.5341691970825195	-0.0006033778190612793
H	2.6176910400390625	-0.3464720845222473	-0.058091361075639725	-0.0010360479354858398
H	3.3024370670318604	-2.3592607975006104	-1.3917022943496704	-0.002061605453491211
H	2.7470431327819824	-1.5736546516418457	-2.8703839778900146	-0.0031411051750183105
H	4.843780040740967	-0.5497102737426758	-1.0877388715744019	-0.01336747407913208
H	4.331939697265625	0.17982593178749084	-2.449903726577759	-0.013074338436126709
H	1.075248122215271	2.188520908355713	0.014777344651520252	0.001184999942779541
H	-0.3004630208015442	2.530047655105591	1.1018489599227905	0.0012781023979187012
H	-0.055568356066942215	3.448547840118408	-1.8070083856582642	0.006869852542877197
H	-1.4313023090362549	3.767676830291748	-0.7556502223014832	0.007953345775604248
H	0.15573766827583313	4.472901821136475	-0.36752453446388245	0.006025969982147217
H	-3.04266095161438	-0.027659181505441666	-1.200157642364502	-0.0006441473960876465
H	-2.195425033569336	-1.4540455341339111	-1.8685442209243774	-0.003825962543487549
H	-4.498380184173584	-1.5331257581710815	0.14788740873336792	-0.005566060543060303
H	-4.620625972747803	-1.916617512702942	-1.5866042375564575	-0.006460666656494141
H	-3.659269332885742	-2.9422261714935303	-0.49307140707969666	-0.0073416829109191895
