36
CCO[SI](CSCC)(OCC)OCC
C	-1.9456546306610107	2.510613441467285	3.0589613914489746	-0.030487060546875
C	-1.8944664001464844	1.3569194078445435	2.073167085647583	-0.051795899868011475
O	-0.569647490978241	1.2722430229187012	1.5589631795883179	-0.06556987762451172
Si	-0.2545418441295624	0.14466209709644318	0.3600006699562073	-0.10030871629714966
C	1.6183699369430542	-0.009160484187304974	0.12023735046386719	-0.051563918590545654
S	2.0016238689422607	-1.0378658771514893	-1.3356220722198486	-0.08655726909637451
C	3.812819480895996	-0.8551403284072876	-1.3705029487609863	-0.06686216592788696
C	4.490193843841553	-1.6166865825653076	-0.24570906162261963	-0.020991027355194092
O	-0.9307220578193665	-1.3046334981918335	0.8490058779716492	-0.062330543994903564
C	-1.5274505615234375	-2.152060031890869	-0.12576718628406525	-0.04967385530471802
C	-1.9678083658218384	-3.4297683238983154	0.5665854215621948	-0.028645217418670654
O	-1.043944001197815	0.6630042791366577	-1.0204839706420898	-0.06876826286315918
C	-0.6942194700241089	1.9235588312149048	-1.5784944295883179	-0.033683717250823975
C	-1.5513055324554443	2.1482067108154297	-2.811328172683716	0.006196141242980957
H	-2.9473395347595215	2.6149911880493164	3.4852187633514404	-0.0036272406578063965
H	-1.2295358180999756	2.3547465801239014	3.8726096153259277	-0.00523000955581665
H	-1.6709362268447876	3.4497852325439453	2.5673365592956543	-0.0016014575958251953
H	-2.614665985107422	1.5419034957885742	1.2663919925689697	-0.0011172294616699219
H	-2.1635067462921143	0.4285792410373688	2.59167218208313	-0.0031633973121643066
H	2.0445516109466553	0.9884277582168579	-0.021292410790920258	0.0016071200370788574
H	2.0518577098846436	-0.45687177777290344	1.0183537006378174	0.0016558170318603516
H	4.163641452789307	-1.244897484779358	-2.331544876098633	-0.0015723109245300293
H	4.074976921081543	0.20695190131664276	-1.335035800933838	-0.0001971721649169922
H	4.227462291717529	-1.214953064918518	0.7373391389846802	-0.0018227696418762207
H	5.5777506828308105	-1.5381252765655518	-0.3485420048236847	-0.003237009048461914
H	4.232253551483154	-2.6807687282562256	-0.2686205506324768	-0.002394735813140869
H	-2.4045252799987793	-1.6640418767929077	-0.5681880712509155	-0.002507627010345459
H	-0.8152173161506653	-2.4028568267822266	-0.9201714992523193	-0.0030735135078430176
H	-2.44026255607605	-4.114742279052734	-0.14303918182849884	-0.004859864711761475
H	-2.6778392791748047	-3.207925796508789	1.370225191116333	-0.002530813217163086
H	-1.1112709045410156	-3.9331705570220947	1.0271438360214233	-0.002714216709136963
H	-0.8817498683929443	2.7293412685394287	-0.8581969141960144	0.005594789981842041
H	0.36323097348213196	1.9395010471343994	-1.8685026168823242	0.0040528178215026855
H	-1.3189382553100586	3.109626293182373	-3.2778239250183105	0.006872892379760742
H	-1.38857901096344	1.3509743213653564	-3.5442240238189697	0.0033547282218933105
H	-2.614604949951172	2.1296329498291016	-2.550122022628784	0.006385505199432373
