21
CO[SI](OC)(OC)OC
C	-0.033725805580616	-0.6089673638343811	2.5714614391326904	-0.02176329493522644
O	0.2073937952518463	-1.0689778327941895	1.252495527267456	-0.06427410244941711
Si	-1.2488551419664873e-06	-1.7014116338032181e-06	-2.597577349661151e-06	-0.11696206033229828
O	0.891535222530365	1.3702079057693481	0.2866344153881073	-0.07276786863803864
C	0.7372367978096008	2.4661691188812256	-0.5990747809410095	-0.009059488773345947
O	0.5074394941329956	-0.7000312805175781	-1.4166659116744995	-0.06812778115272522
C	1.8160260915756226	-1.2430254220962524	-1.4633344411849976	-0.02123236656188965
O	-1.6063742637634277	0.39879438281059265	-0.1224709153175354	-0.07265223562717438
C	-2.5195372104644775	-0.6141754984855652	-0.5090517401695251	-0.028667718172073364
H	0.6646031141281128	0.18808816373348236	2.8511228561401367	-0.0011702477931976318
H	-1.0681302547454834	-0.2682836055755615	2.6956980228424072	-0.0007949173450469971
H	0.12581682205200195	-1.447399377822876	3.256898880004883	7.796287536621094e-05
H	1.009507179260254	2.194971799850464	-1.6256284713745117	0.003956913948059082
H	1.414401888847351	3.2623181343078613	-0.2737415134906769	0.003345400094985962
H	-0.28365635871887207	2.863760232925415	-0.5695745348930359	0.005013018846511841
H	2.576249599456787	-0.4772070050239563	-1.2707864046096802	0.0007070302963256836
H	1.9845468997955322	-1.6340527534484863	-2.471770763397217	-0.0005519688129425049
H	1.929085373878479	-2.075512409210205	-0.7595201730728149	0.0008222758769989014
H	-3.524765968322754	-0.18086767196655273	-0.5113868713378906	0.0002967417240142822
H	-2.310023069381714	-0.9763407111167908	-1.52202308177948	-0.0016029179096221924
H	-2.5176284313201904	-1.4494669437408447	0.20072075724601746	-0.0013351738452911377
