26
CO[SI](CCCCL)(OC)OC
C	-0.9912804365158081	2.2888805866241455	-1.2561593055725098	-0.00036890991032123566
O	-0.8091546893119812	1.7267563343048096	0.03336310759186745	-0.08293022215366364
Si	-0.6643561124801636	0.07043923437595367	0.16840273141860962	-0.12472303211688995
C	1.0026113986968994	-0.5102163553237915	-0.5356674194335938	-0.035718709230422974
C	2.227419376373291	0.17464913427829742	0.0855642557144165	-0.024032318964600563
C	3.5509328842163086	-0.36592668294906616	-0.44562697410583496	-0.0884205549955368
Cl	3.7790987491607666	0.009899906814098358	-2.1694517135620117	-0.06563299149274826
O	-1.9358314275741577	-0.6390303373336792	-0.6448059678077698	-0.07901502400636673
C	-2.1279654502868652	-2.0388827323913574	-0.5229299068450928	-0.03656157851219177
O	-0.7726786136627197	-0.3401750326156616	1.7822210788726807	-0.07429421693086624
C	-1.7957053184509277	0.2604561150074005	2.5609822273254395	-0.03841528296470642
H	-1.0402531623840332	3.3769006729125977	-1.1472922563552856	0.009320976212620735
H	-1.9322350025177002	1.9551115036010742	-1.7077375650405884	0.007657097652554512
H	-0.14894981682300568	2.0561981201171875	-1.9174121618270874	0.006762566044926643
H	0.9766201972961426	-0.3358270525932312	-1.6165339946746826	-0.0001411624252796173
H	1.0738681554794312	-1.593538522720337	-0.3849828541278839	-0.00024969130754470825
H	2.2135255336761475	0.025912391021847725	1.1731631755828857	-0.00045770779252052307
H	2.179624319076538	1.2590514421463013	-0.07832729816436768	-6.034970283508301e-07
H	4.386826992034912	0.08497736603021622	0.0975177213549614	0.0025684088468551636
H	3.611008405685425	-1.4519610404968262	-0.3262755572795868	0.00264924019575119
H	-2.9996228218078613	-2.3146135807037354	-1.1247870922088623	-0.003278203308582306
H	-2.3333539962768555	-2.326237678527832	0.5143478512763977	-0.001979546621441841
H	-1.266209363937378	-2.595736265182495	-0.9074079394340515	-0.0032764337956905365
H	-1.751346230506897	-0.16924430429935455	3.5667033195495605	-0.004833853803575039
H	-2.790128231048584	0.05056370422244072	2.1506383419036865	-0.003641011193394661
H	-1.6424652338027954	1.341592788696289	2.652494430541992	-0.004309769719839096
