35
CO[SI](CCCOCC1CO1)(OC)OC
C	-4.238344669342041	-1.043269157409668	-1.4270191192626953	-0.03438520431518555
O	-2.8714406490325928	-1.0108797550201416	-1.0483813285827637	-0.07913780212402344
Si	-2.313021421432495	0.298452228307724	-0.17813828587532043	-0.1207457184791565
C	-0.4729750454425812	0.5899937152862549	-0.5411863327026367	-0.03638184070587158
C	0.45787283778190613	-0.5630238652229309	-0.1654638946056366	-0.035207152366638184
C	1.902011513710022	-0.2677653729915619	-0.5554251670837402	-0.04387378692626953
O	2.70475435256958	-1.3755630254745483	-0.15247918665409088	-0.06414693593978882
C	4.083137512207031	-1.2157024145126343	-0.4931076765060425	-0.03886896371841431
C	4.7894487380981445	-0.44741010665893555	0.5725637078285217	-0.023542940616607666
C	5.104752540588379	1.018245816230774	0.42444315552711487	-0.008811891078948975
O	6.0990400314331055	0.008645926602184772	0.20294280350208282	-0.040334343910217285
O	-3.1975619792938232	1.6446799039840698	-0.6192202568054199	-0.07936686277389526
C	-3.202803611755371	2.7679977416992188	0.2467447817325592	-0.0015954375267028809
O	-2.5618607997894287	0.01996752619743347	1.4476019144058228	-0.07611525058746338
C	-2.581386089324951	-1.3156903982162476	1.9249752759933472	-0.03463476896286011
H	-4.900881767272949	-0.9560334086418152	-0.5582401156425476	-0.0017117857933044434
H	-4.4642109870910645	-0.2588427662849426	-2.157966136932373	-0.0003591775894165039
H	-4.434968948364258	-2.0093350410461426	-1.902500033378601	-0.0037559866905212402
H	-0.3790895938873291	0.8020508289337158	-1.6127817630767822	0.0008205771446228027
H	-0.1627173274755478	1.4960421323776245	-0.00774101447314024	0.0003447532653808594
H	0.41235196590423584	-0.7584764957427979	0.9135864973068237	-0.0014905333518981934
H	0.13845320045948029	-1.49545419216156	-0.6490170955657959	-0.0017965435981750488
H	2.2467312812805176	0.6430227160453796	-0.054603807628154755	9.840726852416992e-05
H	1.9793211221694946	-0.13270868360996246	-1.6402904987335205	0.00013393163681030273
H	4.191580772399902	-0.7657987475395203	-1.4872560501098633	-0.0018178820610046387
H	4.516280651092529	-2.2202610969543457	-0.5420435667037964	-0.0020618438720703125
H	4.663632392883301	-0.8698073029518127	1.5599724054336548	0.005556643009185791
H	5.191317081451416	1.6154570579528809	1.3234808444976807	0.005513250827789307
H	4.734569549560547	1.5529168844223022	-0.4407886862754822	0.006106317043304443
H	-3.6886818408966064	2.5321145057678223	1.2001070976257324	0.004936039447784424
H	-3.780501365661621	3.5635507106781006	-0.2343263477087021	0.009145140647888184
H	-2.189539909362793	3.1476683616638184	0.4201629161834717	0.006617903709411621
H	-1.6681702136993408	-1.8588367700576782	1.6588267087936401	-0.0019949674606323242
H	-3.4619433879852295	-1.8525193929672241	1.555385947227478	-0.0025197863578796387
H	-2.6451570987701416	-1.283428430557251	3.017181873321533	-0.002808094024658203
