27
CO[SI](CCCS)(OC)OC
C	-1.1023938655853271	0.6573740839958191	2.727755069732666	-0.03918199613690376
O	-1.6169085502624512	0.3618413805961609	1.439155101776123	-0.08209187537431717
Si	-0.5479823350906372	0.17666395008563995	0.17342862486839294	-0.1295318901538849
C	0.5482819676399231	-1.3471590280532837	0.4215009808540344	-0.031549882143735886
C	1.393323302268982	-1.8058302402496338	-0.7765464186668396	-0.026549022644758224
C	2.428267240524292	-0.8200888633728027	-1.3306965827941895	-0.07069925218820572
S	3.625332832336426	-0.2441897839307785	-0.0930425152182579	-0.10893338918685913
O	0.4065615236759186	1.5429295301437378	0.08321686089038849	-0.08810467272996902
C	-0.18041546642780304	2.743941307067871	-0.3931446075439453	-0.005124490708112717
O	-1.4153883457183838	0.04326628893613815	-1.2445476055145264	-0.08640817552804947
C	-2.5404157638549805	-0.8201025724411011	-1.2733333110809326	-0.03577764332294464
H	-0.5718334317207336	1.6161035299301147	2.736772060394287	-0.003394920378923416
H	-1.946945071220398	0.7361710667610168	3.4195220470428467	-0.0038397032767534256
H	-0.44674360752105713	-0.1425618827342987	3.0894925594329834	-0.0035408753901720047
H	1.1873780488967896	-1.1781554222106934	1.2948271036148071	0.0018703187815845013
H	-0.11837979406118393	-2.174708843231201	0.6943445801734924	0.00169674726203084
H	1.9110639095306396	-2.7309365272521973	-0.4893699288368225	-4.821456968784332e-05
H	0.7227747440338135	-2.0853967666625977	-1.6001445055007935	-0.00010354258120059967
H	2.9927732944488525	-1.3168556690216064	-2.1271657943725586	-0.0004649297334253788
H	1.9440644979476929	0.05044258013367653	-1.782965898513794	0.0009809667244553566
H	2.8070476055145264	0.6412428021430969	0.4989510178565979	-0.049289729446172714
H	-0.4766227602958679	2.6514101028442383	-1.444023847579956	0.00786886177957058
H	-1.0386918783187866	3.0431172847747803	0.21927817165851593	0.006562951952219009
H	0.5711564421653748	3.5368664264678955	-0.32660529017448425	0.006369002163410187
H	-2.9456634521484375	-0.8144580125808716	-2.290074110031128	-0.002294212579727173
H	-3.328162431716919	-0.4694254696369171	-0.597213864326477	-0.0005686297081410885
H	-2.2614784240722656	-1.8515011072158813	-1.0293699502944946	-0.003553059883415699
