21
CO[SI](C=C)(OC)OC
C	-2.4189367294311523	-0.1553628146648407	-0.5298411250114441	-0.02633051574230194
O	-1.0926554203033447	-0.2693045437335968	-1.0197824239730835	-0.0729983001947403
Si	0.1693260818719864	-0.028133336454629898	0.0417698435485363	-0.11342670023441315
C	0.22786986827850342	-1.3955472707748413	1.2841638326644897	-0.026410579681396484
C	0.35027188062667847	-1.263599157333374	2.611943006515503	0.0026054978370666504
O	-0.05023999512195587	1.4388608932495117	0.8023504018783569	-0.07321090996265411
C	0.210946723818779	2.6223413944244385	0.06661837548017502	-0.011926710605621338
O	1.59140944480896	0.02702677622437477	-0.8236292004585266	-0.06902134418487549
C	1.8306884765625	-0.9679445028305054	-1.8041538000106812	-0.0249176025390625
H	-2.6220901012420654	-0.8911376595497131	0.2564326226711273	-0.0013646483421325684
H	-2.6256513595581055	0.857086181640625	-0.16502703726291656	0.0008749961853027344
H	-3.1039445400238037	-0.3566001355648041	-1.3595774173736572	-0.0005521774291992188
H	0.1516655832529068	-2.3810105323791504	0.8405476212501526	0.008123323321342468
H	0.3760193884372711	-2.1368017196655273	3.256716012954712	0.0050193071365356445
H	0.42986175417900085	-0.289867639541626	3.0897138118743896	0.003063678741455078
H	-0.40346065163612366	2.678053140640259	-0.8394012451171875	0.005111336708068848
H	-0.047752633690834045	3.4777755737304688	0.6986516714096069	0.003077566623687744
H	1.2732869386672974	2.7056288719177246	-0.18891175091266632	0.002603381872177124
H	2.8204972743988037	-0.7873949408531189	-2.2352802753448486	-0.0007917881011962891
H	1.8351768255233765	-1.9726542234420776	-1.3665059804916382	-4.291534423828125e-05
H	1.0977113246917725	-0.9114144444465637	-2.6167972087860107	-0.0009368956089019775
