5
F[SI](F)(F)F
F	1.5468333959579468	-0.41084256768226624	-0.06267429143190384	-0.02484118938446045
Si	4.2753407569762203e-07	-6.898874005401012e-08	-1.7400269314293837e-07	-0.13319683074951172
F	-0.23159946501255035	1.338828206062317	-0.8481239080429077	-0.02575218677520752
F	-0.8913888335227966	-1.181181788444519	-0.6129016280174255	-0.025124669075012207
F	-0.42384546995162964	0.25319623947143555	1.5236999988555908	-0.02512061595916748
